/*---------------------------------------------------------------------------*\
| =========                 |                                                 |
| \\      /  F ield         | OpenFOAM: The Open Source CFD Toolbox           |
|  \\    /   O peration     | Version:  2412                                  |
|   \\  /    A nd           | Website:  www.openfoam.com                      |
|    \\/     M anipulation  |                                                 |
\*---------------------------------------------------------------------------*/
Build  : _f00230df-20250528 OPENFOAM=2412 patch=250528 version=2412
Arch   : "LSB;label=32;scalar=64"
Exec   : decomposePar -force
Date   : Aug 20 2025
Time   : 13:18:19
Host   : ip-172-31-2-15.eu-west-2.compute.internal
PID    : 556494
I/O    : uncollated
Case   : /mnt/simulations/re200/40steps
nProcs : 1
trapFpe: Floating point exception trapping enabled (FOAM_SIGFPE).
fileModificationChecking : Monitoring run-time modified files using timeStampMaster (fileModificationSkew 5, maxFileModificationPolls 20)
allowSystemOperations : Allowing user-supplied system call operations

// * * * * * * * * * * * * * * * * * * * * * * * * * * * * * * * * * * * * * //
Create time



Decomposing mesh

Removing 3 existing processor directories
Create mesh

Calculating distribution of cells
Decomposition method scotch [3] (region region0)

Finished decomposition in 0.05 s

Calculating original mesh data

Distributing cells to processors

Distributing faces to processors

Distributing points to processors

Constructing processor meshes

Processor 0
    Number of cells = 5280
    Number of points = 6426
    Number of faces shared with processor 2 = 160
    Number of processor patches = 1
    Number of processor faces = 160
    Number of boundary faces = 2008

Processor 1
    Number of cells = 5384
    Number of points = 6552
    Number of faces shared with processor 2 = 168
    Number of processor patches = 1
    Number of processor faces = 168
    Number of boundary faces = 2042

Processor 2
    Number of cells = 5336
    Number of points = 6498
    Number of faces shared with processor 0 = 160
    Number of faces shared with processor 1 = 168
    Number of processor patches = 2
    Number of processor faces = 328
    Number of boundary faces = 1870

Number of processor faces = 328
Max number of cells = 5384 (0.95% above average 5333.33)
Max number of processor patches = 2 (50% above average 1.33333)
Max number of faces between processors = 328 (50% above average 218.667)

Time = 0

Processor 0: field transfer
Processor 1: field transfer
Processor 2: field transfer

End

