/*---------------------------------------------------------------------------*\
| =========                 |                                                 |
| \\      /  F ield         | OpenFOAM: The Open Source CFD Toolbox           |
|  \\    /   O peration     | Version:  2412                                  |
|   \\  /    A nd           | Website:  www.openfoam.com                      |
|    \\/     M anipulation  |                                                 |
\*---------------------------------------------------------------------------*/
Build  : _f00230df-20250528 OPENFOAM=2412 patch=250528 version=2412
Arch   : "LSB;label=32;scalar=64"
Exec   : pimpleFoam
Date   : Aug 20 2025
Time   : 13:18:31
Host   : ip-172-31-46-184
PID    : 114328
I/O    : uncollated
Case   : /mnt/simulations/re200/40steps
nProcs : 1
trapFpe: Floating point exception trapping enabled (FOAM_SIGFPE).
fileModificationChecking : Monitoring run-time modified files using timeStampMaster (fileModificationSkew 5, maxFileModificationPolls 20)
allowSystemOperations : Allowing user-supplied system call operations

// * * * * * * * * * * * * * * * * * * * * * * * * * * * * * * * * * * * * * //
Create time

Create mesh for time = 0


PIMPLE: Operating solver in PISO mode

Reading field p

Reading field U

Reading/calculating face flux field phi

Selecting incompressible transport model Newtonian
Selecting turbulence model type laminar
Selecting laminar stress model Stokes
No MRF models present

No finite volume options present
Courant Number mean: 0.2 max: 0.2
Courant Number mean: 0.2 max: 0.2

Starting time loop

Courant Number mean: 0.2 max: 0.2
deltaT = 0.012
Time = 0.012

PIMPLE: iteration 1
smoothSolver:  Solving for Ux, Initial residual = 1, Final residual = 4.24823e-08, No Iterations 4
smoothSolver:  Solving for Uy, Initial residual = 0.999983, Final residual = 5.34166e-08, No Iterations 4
smoothSolver:  Solving for Uz, Initial residual = 0.999958, Final residual = 5.09234e-08, No Iterations 4
GAMG:  Solving for p, Initial residual = 1, Final residual = 0.00453286, No Iterations 6
GAMG:  Solving for p, Initial residual = 2.47343e-05, Final residual = 4.60452e-08, No Iterations 5
time step continuity errors : sum local = 1.332e-10, global = 2.36331e-11, cumulative = 2.36331e-11
ExecutionTime = 0.19 s  ClockTime = 0 s

Courant Number mean: 0.240037 max: 0.243818
deltaT = 0.0144
Time = 0.0264

PIMPLE: iteration 1
smoothSolver:  Solving for Ux, Initial residual = 0.372653, Final residual = 1.92845e-07, No Iterations 3
smoothSolver:  Solving for Uy, Initial residual = 0.386667, Final residual = 8.91966e-08, No Iterations 3
smoothSolver:  Solving for Uz, Initial residual = 0.385053, Final residual = 1.26988e-07, No Iterations 3
GAMG:  Solving for p, Initial residual = 0.00247639, Final residual = 1.15952e-05, No Iterations 4
GAMG:  Solving for p, Initial residual = 1.24541e-05, Final residual = 9.78694e-08, No Iterations 4
time step continuity errors : sum local = 2.54738e-10, global = 2.08913e-10, cumulative = 2.32546e-10
ExecutionTime = 0.24 s  ClockTime = 0 s

Courant Number mean: 0.288097 max: 0.29732
deltaT = 0.01728
Time = 0.04368

PIMPLE: iteration 1
smoothSolver:  Solving for Ux, Initial residual = 0.238704, Final residual = 3.51572e-07, No Iterations 3
smoothSolver:  Solving for Uy, Initial residual = 0.253147, Final residual = 2.01859e-07, No Iterations 3
smoothSolver:  Solving for Uz, Initial residual = 0.245373, Final residual = 2.59919e-07, No Iterations 3
GAMG:  Solving for p, Initial residual = 0.000796301, Final residual = 5.08604e-06, No Iterations 4
GAMG:  Solving for p, Initial residual = 5.17681e-06, Final residual = 1.91409e-08, No Iterations 5
time step continuity errors : sum local = 6.88738e-11, global = 4.78821e-11, cumulative = 2.80428e-10
ExecutionTime = 0.3 s  ClockTime = 0 s

Courant Number mean: 0.34579 max: 0.363733
deltaT = 0.0206055
Time = 0.0642855

PIMPLE: iteration 1
smoothSolver:  Solving for Ux, Initial residual = 0.180364, Final residual = 7.37172e-07, No Iterations 3
smoothSolver:  Solving for Uy, Initial residual = 0.191956, Final residual = 5.22623e-07, No Iterations 3
smoothSolver:  Solving for Uz, Initial residual = 0.186855, Final residual = 6.28335e-07, No Iterations 3
GAMG:  Solving for p, Initial residual = 0.000717936, Final residual = 5.30519e-06, No Iterations 4
GAMG:  Solving for p, Initial residual = 5.43171e-06, Final residual = 6.11833e-08, No Iterations 4
time step continuity errors : sum local = 2.98322e-10, global = 1.89744e-10, cumulative = 4.70172e-10
ExecutionTime = 0.35 s  ClockTime = 0 s

Courant Number mean: 0.412438 max: 0.442664
deltaT = 0.0238639
Time = 0.0881494

PIMPLE: iteration 1
smoothSolver:  Solving for Ux, Initial residual = 0.143908, Final residual = 3.64084e-08, No Iterations 4
smoothSolver:  Solving for Uy, Initial residual = 0.153018, Final residual = 2.62139e-08, No Iterations 4
smoothSolver:  Solving for Uz, Initial residual = 0.149809, Final residual = 3.01089e-08, No Iterations 4
GAMG:  Solving for p, Initial residual = 0.000799847, Final residual = 5.92363e-06, No Iterations 4
GAMG:  Solving for p, Initial residual = 6.08205e-06, Final residual = 7.05408e-08, No Iterations 4
time step continuity errors : sum local = 4.40206e-10, global = 2.79832e-10, cumulative = 7.50004e-10
ExecutionTime = 0.39 s  ClockTime = 1 s

Courant Number mean: 0.477788 max: 0.522729
deltaT = 0.0270596
Time = 0.115209

PIMPLE: iteration 1
smoothSolver:  Solving for Ux, Initial residual = 0.118497, Final residual = 8.46621e-08, No Iterations 4
smoothSolver:  Solving for Uy, Initial residual = 0.126423, Final residual = 7.17225e-08, No Iterations 4
smoothSolver:  Solving for Uz, Initial residual = 0.12451, Final residual = 7.93487e-08, No Iterations 4
GAMG:  Solving for p, Initial residual = 0.000861275, Final residual = 6.3057e-06, No Iterations 4
GAMG:  Solving for p, Initial residual = 6.49069e-06, Final residual = 7.30927e-08, No Iterations 4
time step continuity errors : sum local = 5.5814e-10, global = 3.55342e-10, cumulative = 1.10535e-09
ExecutionTime = 0.45 s  ClockTime = 1 s

Courant Number mean: 0.54193 max: 0.602557
deltaT = 0.0302032
Time = 0.145412

PIMPLE: iteration 1
smoothSolver:  Solving for Ux, Initial residual = 0.0995748, Final residual = 1.8074e-07, No Iterations 4
smoothSolver:  Solving for Uy, Initial residual = 0.109007, Final residual = 1.74361e-07, No Iterations 4
smoothSolver:  Solving for Uz, Initial residual = 0.109066, Final residual = 1.88232e-07, No Iterations 4
GAMG:  Solving for p, Initial residual = 0.000946244, Final residual = 6.47455e-06, No Iterations 4
GAMG:  Solving for p, Initial residual = 6.67879e-06, Final residual = 7.07257e-08, No Iterations 4
time step continuity errors : sum local = 6.39042e-10, global = 4.04615e-10, cumulative = 1.50996e-09
ExecutionTime = 0.51 s  ClockTime = 1 s

Courant Number mean: 0.605077 max: 0.681855
deltaT = 0.0310069
Time = 0.176419

PIMPLE: iteration 1
smoothSolver:  Solving for Ux, Initial residual = 0.0796999, Final residual = 2.12497e-07, No Iterations 4
smoothSolver:  Solving for Uy, Initial residual = 0.095202, Final residual = 2.22382e-07, No Iterations 4
smoothSolver:  Solving for Uz, Initial residual = 0.0913974, Final residual = 2.38039e-07, No Iterations 4
GAMG:  Solving for p, Initial residual = 0.000949975, Final residual = 5.9802e-06, No Iterations 4
GAMG:  Solving for p, Initial residual = 6.16295e-06, Final residual = 6.63688e-08, No Iterations 4
time step continuity errors : sum local = 6.16542e-10, global = 3.92183e-10, cumulative = 1.90214e-09
ExecutionTime = 0.56 s  ClockTime = 1 s

Courant Number mean: 0.621368 max: 0.710572
deltaT = 0.0305456
Time = 0.206965

PIMPLE: iteration 1
smoothSolver:  Solving for Ux, Initial residual = 0.0634061, Final residual = 1.71821e-07, No Iterations 4
smoothSolver:  Solving for Uy, Initial residual = 0.0781049, Final residual = 1.87496e-07, No Iterations 4
smoothSolver:  Solving for Uz, Initial residual = 0.0741903, Final residual = 2.01979e-07, No Iterations 4
GAMG:  Solving for p, Initial residual = 0.000975795, Final residual = 5.66362e-06, No Iterations 4
GAMG:  Solving for p, Initial residual = 5.82518e-06, Final residual = 5.98301e-08, No Iterations 4
time step continuity errors : sum local = 5.29205e-10, global = 3.33897e-10, cumulative = 2.23604e-09
ExecutionTime = 0.61 s  ClockTime = 1 s

Courant Number mean: 0.612298 max: 0.70705
deltaT = 0.030241
Time = 0.237206

PIMPLE: iteration 1
smoothSolver:  Solving for Ux, Initial residual = 0.0521531, Final residual = 1.41457e-07, No Iterations 4
smoothSolver:  Solving for Uy, Initial residual = 0.0640251, Final residual = 1.57779e-07, No Iterations 4
smoothSolver:  Solving for Uz, Initial residual = 0.0619203, Final residual = 1.71649e-07, No Iterations 4
GAMG:  Solving for p, Initial residual = 0.000940524, Final residual = 5.63063e-06, No Iterations 4
GAMG:  Solving for p, Initial residual = 5.78317e-06, Final residual = 5.47469e-08, No Iterations 4
time step continuity errors : sum local = 4.62996e-10, global = 2.77234e-10, cumulative = 2.51328e-09
ExecutionTime = 0.66 s  ClockTime = 1 s

Courant Number mean: 0.606355 max: 0.704002
deltaT = 0.0300691
Time = 0.267275

PIMPLE: iteration 1
smoothSolver:  Solving for Ux, Initial residual = 0.0439947, Final residual = 1.23992e-07, No Iterations 4
smoothSolver:  Solving for Uy, Initial residual = 0.0558684, Final residual = 1.38748e-07, No Iterations 4
smoothSolver:  Solving for Uz, Initial residual = 0.0534404, Final residual = 1.53548e-07, No Iterations 4
GAMG:  Solving for p, Initial residual = 0.00091894, Final residual = 5.75521e-06, No Iterations 4
GAMG:  Solving for p, Initial residual = 5.9041e-06, Final residual = 5.17654e-08, No Iterations 4
time step continuity errors : sum local = 4.22291e-10, global = 2.31082e-10, cumulative = 2.74436e-09
ExecutionTime = 0.72 s  ClockTime = 1 s

Courant Number mean: 0.603061 max: 0.704035
deltaT = 0.0298967
Time = 0.297172

PIMPLE: iteration 1
smoothSolver:  Solving for Ux, Initial residual = 0.0376731, Final residual = 1.11022e-07, No Iterations 4
smoothSolver:  Solving for Uy, Initial residual = 0.0483762, Final residual = 1.22892e-07, No Iterations 4
smoothSolver:  Solving for Uz, Initial residual = 0.0467422, Final residual = 1.39503e-07, No Iterations 4
GAMG:  Solving for p, Initial residual = 0.000910098, Final residual = 5.94475e-06, No Iterations 4
GAMG:  Solving for p, Initial residual = 6.09124e-06, Final residual = 4.8921e-08, No Iterations 4
time step continuity errors : sum local = 3.85589e-10, global = 1.79623e-10, cumulative = 2.92398e-09
ExecutionTime = 0.77 s  ClockTime = 1 s

Courant Number mean: 0.599749 max: 0.707116
deltaT = 0.0295959
Time = 0.326767

PIMPLE: iteration 1
smoothSolver:  Solving for Ux, Initial residual = 0.0326593, Final residual = 9.73312e-08, No Iterations 4
smoothSolver:  Solving for Uy, Initial residual = 0.0419947, Final residual = 1.07536e-07, No Iterations 4
smoothSolver:  Solving for Uz, Initial residual = 0.041177, Final residual = 1.23908e-07, No Iterations 4
GAMG:  Solving for p, Initial residual = 0.000897868, Final residual = 6.16777e-06, No Iterations 4
GAMG:  Solving for p, Initial residual = 6.31132e-06, Final residual = 4.28162e-08, No Iterations 4
time step continuity errors : sum local = 3.24141e-10, global = 1.32084e-10, cumulative = 3.05606e-09
ExecutionTime = 0.82 s  ClockTime = 1 s

Courant Number mean: 0.593849 max: 0.707118
deltaT = 0.029298
Time = 0.356065

PIMPLE: iteration 1
smoothSolver:  Solving for Ux, Initial residual = 0.0286132, Final residual = 8.58514e-08, No Iterations 4
smoothSolver:  Solving for Uy, Initial residual = 0.0381242, Final residual = 9.359e-08, No Iterations 4
smoothSolver:  Solving for Uz, Initial residual = 0.0367028, Final residual = 1.09554e-07, No Iterations 4
GAMG:  Solving for p, Initial residual = 0.000872539, Final residual = 6.4319e-06, No Iterations 4
GAMG:  Solving for p, Initial residual = 6.57335e-06, Final residual = 4.06326e-08, No Iterations 4
time step continuity errors : sum local = 2.95658e-10, global = 1.22032e-10, cumulative = 3.1781e-09
ExecutionTime = 0.87 s  ClockTime = 1 s

Courant Number mean: 0.587998 max: 0.707198
deltaT = 0.0289998
Time = 0.385065

PIMPLE: iteration 1
smoothSolver:  Solving for Ux, Initial residual = 0.025286, Final residual = 7.62534e-08, No Iterations 4
smoothSolver:  Solving for Uy, Initial residual = 0.0336599, Final residual = 8.18265e-08, No Iterations 4
smoothSolver:  Solving for Uz, Initial residual = 0.0327129, Final residual = 9.73859e-08, No Iterations 4
GAMG:  Solving for p, Initial residual = 0.000865216, Final residual = 6.79765e-06, No Iterations 4
GAMG:  Solving for p, Initial residual = 6.93871e-06, Final residual = 4.77774e-08, No Iterations 4
time step continuity errors : sum local = 3.34483e-10, global = 1.54227e-10, cumulative = 3.33232e-09
ExecutionTime = 0.92 s  ClockTime = 1 s

Courant Number mean: 0.582133 max: 0.706399
deltaT = 0.0287371
Time = 0.413802

PIMPLE: iteration 1
smoothSolver:  Solving for Ux, Initial residual = 0.02254, Final residual = 6.86289e-08, No Iterations 4
smoothSolver:  Solving for Uy, Initial residual = 0.0302561, Final residual = 7.2402e-08, No Iterations 4
smoothSolver:  Solving for Uz, Initial residual = 0.0296169, Final residual = 8.73872e-08, No Iterations 4
GAMG:  Solving for p, Initial residual = 0.000855657, Final residual = 7.23842e-06, No Iterations 4
GAMG:  Solving for p, Initial residual = 7.38041e-06, Final residual = 7.27469e-08, No Iterations 4
time step continuity errors : sum local = 4.91472e-10, global = 2.67487e-10, cumulative = 3.59981e-09
ExecutionTime = 0.97 s  ClockTime = 1 s

Courant Number mean: 0.576972 max: 0.705335
deltaT = 0.0285197
Time = 0.442322

PIMPLE: iteration 1
smoothSolver:  Solving for Ux, Initial residual = 0.0202445, Final residual = 6.28122e-08, No Iterations 4
smoothSolver:  Solving for Uy, Initial residual = 0.0275578, Final residual = 6.52163e-08, No Iterations 4
smoothSolver:  Solving for Uz, Initial residual = 0.0269059, Final residual = 7.98677e-08, No Iterations 4
GAMG:  Solving for p, Initial residual = 0.000838915, Final residual = 8.06236e-06, No Iterations 4
GAMG:  Solving for p, Initial residual = 8.21273e-06, Final residual = 3.42007e-08, No Iterations 5
time step continuity errors : sum local = 2.23768e-10, global = 1.0099e-10, cumulative = 3.7008e-09
ExecutionTime = 1.03 s  ClockTime = 1 s

Courant Number mean: 0.572714 max: 0.705771
deltaT = 0.0282865
Time = 0.470609

PIMPLE: iteration 1
smoothSolver:  Solving for Ux, Initial residual = 0.0182696, Final residual = 5.74889e-08, No Iterations 4
smoothSolver:  Solving for Uy, Initial residual = 0.0251537, Final residual = 5.85563e-08, No Iterations 4
smoothSolver:  Solving for Uz, Initial residual = 0.0247528, Final residual = 7.28295e-08, No Iterations 4
GAMG:  Solving for p, Initial residual = 0.000836771, Final residual = 2.10088e-06, No Iterations 5
GAMG:  Solving for p, Initial residual = 2.13829e-06, Final residual = 6.12373e-08, No Iterations 3
time step continuity errors : sum local = 3.88019e-10, global = -1.15168e-10, cumulative = 3.58563e-09
ExecutionTime = 1.09 s  ClockTime = 1 s

Courant Number mean: 0.568133 max: 0.704525
deltaT = 0.0281049
Time = 0.498713

PIMPLE: iteration 1
smoothSolver:  Solving for Ux, Initial residual = 0.0165907, Final residual = 9.45756e-07, No Iterations 3
smoothSolver:  Solving for Uy, Initial residual = 0.0231128, Final residual = 5.36711e-08, No Iterations 4
smoothSolver:  Solving for Uz, Initial residual = 0.0228758, Final residual = 6.75728e-08, No Iterations 4
GAMG:  Solving for p, Initial residual = 0.000824358, Final residual = 1.57367e-06, No Iterations 5
GAMG:  Solving for p, Initial residual = 1.60038e-06, Final residual = 3.57972e-08, No Iterations 3
time step continuity errors : sum local = 2.20486e-10, global = -5.63056e-11, cumulative = 3.52933e-09
ExecutionTime = 1.14 s  ClockTime = 1 s

Courant Number mean: 0.564581 max: 0.704549
deltaT = 0.0279234
Time = 0.526637

PIMPLE: iteration 1
smoothSolver:  Solving for Ux, Initial residual = 0.0151282, Final residual = 8.79588e-07, No Iterations 3
smoothSolver:  Solving for Uy, Initial residual = 0.0214992, Final residual = 4.94058e-08, No Iterations 4
smoothSolver:  Solving for Uz, Initial residual = 0.0212466, Final residual = 6.27867e-08, No Iterations 4
GAMG:  Solving for p, Initial residual = 0.0008081, Final residual = 7.78587e-06, No Iterations 4
GAMG:  Solving for p, Initial residual = 7.91154e-06, Final residual = 7.31705e-08, No Iterations 3
time step continuity errors : sum local = 4.38518e-10, global = 1.24841e-10, cumulative = 3.65417e-09
ExecutionTime = 1.18 s  ClockTime = 1 s

Courant Number mean: 0.561028 max: 0.704119
deltaT = 0.0277601
Time = 0.554397

PIMPLE: iteration 1
smoothSolver:  Solving for Ux, Initial residual = 0.0138534, Final residual = 8.23036e-07, No Iterations 3
smoothSolver:  Solving for Uy, Initial residual = 0.0199413, Final residual = 4.55394e-08, No Iterations 4
smoothSolver:  Solving for Uz, Initial residual = 0.019776, Final residual = 5.87314e-08, No Iterations 4
GAMG:  Solving for p, Initial residual = 0.000787698, Final residual = 7.01821e-06, No Iterations 4
GAMG:  Solving for p, Initial residual = 7.12632e-06, Final residual = 6.73894e-08, No Iterations 3
time step continuity errors : sum local = 3.93643e-10, global = 1.29616e-10, cumulative = 3.78378e-09
ExecutionTime = 1.24 s  ClockTime = 1 s

Courant Number mean: 0.557835 max: 0.703373
deltaT = 0.0276269
Time = 0.582024

PIMPLE: iteration 1
smoothSolver:  Solving for Ux, Initial residual = 0.012796, Final residual = 7.77077e-07, No Iterations 3
smoothSolver:  Solving for Uy, Initial residual = 0.0185062, Final residual = 4.24932e-08, No Iterations 4
smoothSolver:  Solving for Uz, Initial residual = 0.0184517, Final residual = 5.53975e-08, No Iterations 4
GAMG:  Solving for p, Initial residual = 0.000769291, Final residual = 6.30054e-06, No Iterations 4
GAMG:  Solving for p, Initial residual = 6.39354e-06, Final residual = 7.14556e-08, No Iterations 3
time step continuity errors : sum local = 4.07813e-10, global = 1.99579e-10, cumulative = 3.98336e-09
ExecutionTime = 1.29 s  ClockTime = 1 s

Courant Number mean: 0.555245 max: 0.70375
deltaT = 0.0274797
Time = 0.609503

PIMPLE: iteration 1
smoothSolver:  Solving for Ux, Initial residual = 0.0118491, Final residual = 7.33127e-07, No Iterations 3
smoothSolver:  Solving for Uy, Initial residual = 0.0173355, Final residual = 9.48799e-07, No Iterations 3
smoothSolver:  Solving for Uz, Initial residual = 0.0172996, Final residual = 5.22202e-08, No Iterations 4
GAMG:  Solving for p, Initial residual = 0.000766023, Final residual = 5.6968e-06, No Iterations 4
GAMG:  Solving for p, Initial residual = 5.7772e-06, Final residual = 6.54333e-08, No Iterations 3
time step continuity errors : sum local = 3.64817e-10, global = 2.07759e-10, cumulative = 4.19112e-09
ExecutionTime = 1.34 s  ClockTime = 1 s

Courant Number mean: 0.552368 max: 0.70318
deltaT = 0.0273554
Time = 0.636859

PIMPLE: iteration 1
smoothSolver:  Solving for Ux, Initial residual = 0.0110132, Final residual = 6.95415e-07, No Iterations 3
smoothSolver:  Solving for Uy, Initial residual = 0.0160704, Final residual = 8.88084e-07, No Iterations 3
smoothSolver:  Solving for Uz, Initial residual = 0.0162168, Final residual = 4.94738e-08, No Iterations 4
GAMG:  Solving for p, Initial residual = 0.00075716, Final residual = 5.19373e-06, No Iterations 4
GAMG:  Solving for p, Initial residual = 5.26383e-06, Final residual = 4.70796e-08, No Iterations 3
time step continuity errors : sum local = 2.56905e-10, global = 1.33762e-10, cumulative = 4.32488e-09
ExecutionTime = 1.39 s  ClockTime = 2 s

Courant Number mean: 0.549949 max: 0.704965
deltaT = 0.0271628
Time = 0.664022

PIMPLE: iteration 1
smoothSolver:  Solving for Ux, Initial residual = 0.0102339, Final residual = 6.51089e-07, No Iterations 3
smoothSolver:  Solving for Uy, Initial residual = 0.0150638, Final residual = 8.18039e-07, No Iterations 3
smoothSolver:  Solving for Uz, Initial residual = 0.0152721, Final residual = 4.60884e-08, No Iterations 4
GAMG:  Solving for p, Initial residual = 0.000744319, Final residual = 4.75232e-06, No Iterations 4
GAMG:  Solving for p, Initial residual = 4.81348e-06, Final residual = 3.79586e-08, No Iterations 3
time step continuity errors : sum local = 2.02013e-10, global = 8.32676e-11, cumulative = 4.40815e-09
ExecutionTime = 1.43 s  ClockTime = 2 s

Courant Number mean: 0.546152 max: 0.704373
deltaT = 0.0269942
Time = 0.691016

PIMPLE: iteration 1
smoothSolver:  Solving for Ux, Initial residual = 0.00954334, Final residual = 6.11874e-07, No Iterations 3
smoothSolver:  Solving for Uy, Initial residual = 0.0141136, Final residual = 7.55629e-07, No Iterations 3
smoothSolver:  Solving for Uz, Initial residual = 0.0143716, Final residual = 9.72123e-07, No Iterations 3
GAMG:  Solving for p, Initial residual = 0.000729483, Final residual = 4.44617e-06, No Iterations 4
GAMG:  Solving for p, Initial residual = 4.50075e-06, Final residual = 5.44768e-08, No Iterations 3
time step continuity errors : sum local = 2.83214e-10, global = 1.75058e-10, cumulative = 4.58321e-09
ExecutionTime = 1.49 s  ClockTime = 2 s

Courant Number mean: 0.542835 max: 0.704428
deltaT = 0.0268245
Time = 0.71784

PIMPLE: iteration 1
smoothSolver:  Solving for Ux, Initial residual = 0.00894112, Final residual = 5.75569e-07, No Iterations 3
smoothSolver:  Solving for Uy, Initial residual = 0.0131931, Final residual = 6.99765e-07, No Iterations 3
smoothSolver:  Solving for Uz, Initial residual = 0.0135598, Final residual = 9.08842e-07, No Iterations 3
GAMG:  Solving for p, Initial residual = 0.000719854, Final residual = 4.2473e-06, No Iterations 4
GAMG:  Solving for p, Initial residual = 4.29693e-06, Final residual = 6.44705e-08, No Iterations 3
time step continuity errors : sum local = 3.27599e-10, global = 2.15147e-10, cumulative = 4.79835e-09
ExecutionTime = 1.57 s  ClockTime = 2 s

Courant Number mean: 0.539493 max: 0.704068
deltaT = 0.0266695
Time = 0.74451

PIMPLE: iteration 1
smoothSolver:  Solving for Ux, Initial residual = 0.00839592, Final residual = 5.43166e-07, No Iterations 3
smoothSolver:  Solving for Uy, Initial residual = 0.0123559, Final residual = 6.48636e-07, No Iterations 3
smoothSolver:  Solving for Uz, Initial residual = 0.0128255, Final residual = 8.54698e-07, No Iterations 3
GAMG:  Solving for p, Initial residual = 0.000699983, Final residual = 4.04532e-06, No Iterations 4
GAMG:  Solving for p, Initial residual = 4.09044e-06, Final residual = 6.94602e-08, No Iterations 3
time step continuity errors : sum local = 3.45445e-10, global = 2.15253e-10, cumulative = 5.01361e-09
ExecutionTime = 1.63 s  ClockTime = 2 s

Courant Number mean: 0.536444 max: 0.703964
deltaT = 0.0265193
Time = 0.771029

PIMPLE: iteration 1
smoothSolver:  Solving for Ux, Initial residual = 0.00793128, Final residual = 5.13263e-07, No Iterations 3
smoothSolver:  Solving for Uy, Initial residual = 0.011623, Final residual = 6.05107e-07, No Iterations 3
smoothSolver:  Solving for Uz, Initial residual = 0.0121779, Final residual = 8.04521e-07, No Iterations 3
GAMG:  Solving for p, Initial residual = 0.00067578, Final residual = 3.81047e-06, No Iterations 4
GAMG:  Solving for p, Initial residual = 3.85092e-06, Final residual = 6.58179e-08, No Iterations 3
time step continuity errors : sum local = 3.20639e-10, global = 1.89203e-10, cumulative = 5.20281e-09
ExecutionTime = 1.67 s  ClockTime = 2 s

Courant Number mean: 0.533488 max: 0.703783
deltaT = 0.0263768
Time = 0.797406

PIMPLE: iteration 1
smoothSolver:  Solving for Ux, Initial residual = 0.00751838, Final residual = 4.8608e-07, No Iterations 3
smoothSolver:  Solving for Uy, Initial residual = 0.0109571, Final residual = 5.6405e-07, No Iterations 3
smoothSolver:  Solving for Uz, Initial residual = 0.0115624, Final residual = 7.60299e-07, No Iterations 3
GAMG:  Solving for p, Initial residual = 0.000660735, Final residual = 3.54688e-06, No Iterations 4
GAMG:  Solving for p, Initial residual = 3.58276e-06, Final residual = 6.03367e-08, No Iterations 3
time step continuity errors : sum local = 2.882e-10, global = 1.65409e-10, cumulative = 5.36822e-09
ExecutionTime = 1.73 s  ClockTime = 2 s

Courant Number mean: 0.530684 max: 0.703567
deltaT = 0.026243
Time = 0.823649

PIMPLE: iteration 1
smoothSolver:  Solving for Ux, Initial residual = 0.00713901, Final residual = 4.61531e-07, No Iterations 3
smoothSolver:  Solving for Uy, Initial residual = 0.0102934, Final residual = 5.27385e-07, No Iterations 3
smoothSolver:  Solving for Uz, Initial residual = 0.0110179, Final residual = 7.21406e-07, No Iterations 3
GAMG:  Solving for p, Initial residual = 0.000639559, Final residual = 3.30072e-06, No Iterations 4
GAMG:  Solving for p, Initial residual = 3.33261e-06, Final residual = 5.52223e-08, No Iterations 3
time step continuity errors : sum local = 2.58879e-10, global = 1.46595e-10, cumulative = 5.51481e-09
ExecutionTime = 1.77 s  ClockTime = 2 s

Courant Number mean: 0.528054 max: 0.703518
deltaT = 0.0261118
Time = 0.849761

PIMPLE: iteration 1
smoothSolver:  Solving for Ux, Initial residual = 0.00678643, Final residual = 4.38748e-07, No Iterations 3
smoothSolver:  Solving for Uy, Initial residual = 0.00974257, Final residual = 4.95111e-07, No Iterations 3
smoothSolver:  Solving for Uz, Initial residual = 0.0105453, Final residual = 6.85016e-07, No Iterations 3
GAMG:  Solving for p, Initial residual = 0.000619995, Final residual = 3.03854e-06, No Iterations 4
GAMG:  Solving for p, Initial residual = 3.06655e-06, Final residual = 5.05585e-08, No Iterations 3
time step continuity errors : sum local = 2.32762e-10, global = 1.31105e-10, cumulative = 5.64592e-09
ExecutionTime = 1.82 s  ClockTime = 2 s

Courant Number mean: 0.525472 max: 0.703225
deltaT = 0.0259921
Time = 0.875753

PIMPLE: iteration 1
smoothSolver:  Solving for Ux, Initial residual = 0.00646011, Final residual = 4.18264e-07, No Iterations 3
smoothSolver:  Solving for Uy, Initial residual = 0.00923545, Final residual = 4.64579e-07, No Iterations 3
smoothSolver:  Solving for Uz, Initial residual = 0.0100747, Final residual = 6.52931e-07, No Iterations 3
GAMG:  Solving for p, Initial residual = 0.000595681, Final residual = 2.83561e-06, No Iterations 4
GAMG:  Solving for p, Initial residual = 2.8606e-06, Final residual = 4.69432e-08, No Iterations 3
time step continuity errors : sum local = 2.12472e-10, global = 1.19932e-10, cumulative = 5.76585e-09
ExecutionTime = 1.87 s  ClockTime = 2 s

Courant Number mean: 0.523119 max: 0.703268
deltaT = 0.0258713
Time = 0.901624

PIMPLE: iteration 1
smoothSolver:  Solving for Ux, Initial residual = 0.00615556, Final residual = 3.98858e-07, No Iterations 3
smoothSolver:  Solving for Uy, Initial residual = 0.0087223, Final residual = 4.37445e-07, No Iterations 3
smoothSolver:  Solving for Uz, Initial residual = 0.00966212, Final residual = 6.23098e-07, No Iterations 3
GAMG:  Solving for p, Initial residual = 0.000575626, Final residual = 2.63898e-06, No Iterations 4
GAMG:  Solving for p, Initial residual = 2.66122e-06, Final residual = 4.34127e-08, No Iterations 3
time step continuity errors : sum local = 1.93242e-10, global = 1.07262e-10, cumulative = 5.87311e-09
ExecutionTime = 1.92 s  ClockTime = 2 s

Courant Number mean: 0.520743 max: 0.702928
deltaT = 0.0257635
Time = 0.927388

PIMPLE: iteration 1
smoothSolver:  Solving for Ux, Initial residual = 0.00587273, Final residual = 3.81556e-07, No Iterations 3
smoothSolver:  Solving for Uy, Initial residual = 0.00827379, Final residual = 4.12757e-07, No Iterations 3
smoothSolver:  Solving for Uz, Initial residual = 0.00928935, Final residual = 5.96442e-07, No Iterations 3
GAMG:  Solving for p, Initial residual = 0.000561948, Final residual = 2.49678e-06, No Iterations 4
GAMG:  Solving for p, Initial residual = 2.5169e-06, Final residual = 4.03579e-08, No Iterations 3
time step continuity errors : sum local = 1.76877e-10, global = 9.55173e-11, cumulative = 5.96863e-09
ExecutionTime = 1.98 s  ClockTime = 2 s

Courant Number mean: 0.518627 max: 0.703035
deltaT = 0.0256523
Time = 0.95304

PIMPLE: iteration 1
smoothSolver:  Solving for Ux, Initial residual = 0.00560664, Final residual = 3.64882e-07, No Iterations 3
smoothSolver:  Solving for Uy, Initial residual = 0.00786373, Final residual = 3.89604e-07, No Iterations 3
smoothSolver:  Solving for Uz, Initial residual = 0.008923, Final residual = 5.71745e-07, No Iterations 3
GAMG:  Solving for p, Initial residual = 0.000536587, Final residual = 2.40012e-06, No Iterations 4
GAMG:  Solving for p, Initial residual = 2.41864e-06, Final residual = 3.84878e-08, No Iterations 3
time step continuity errors : sum local = 1.66105e-10, global = 8.82679e-11, cumulative = 6.0569e-09
ExecutionTime = 2.02 s  ClockTime = 2 s

Courant Number mean: 0.51644 max: 0.70267
deltaT = 0.0255548
Time = 0.978595

PIMPLE: iteration 1
smoothSolver:  Solving for Ux, Initial residual = 0.00535965, Final residual = 3.50055e-07, No Iterations 3
smoothSolver:  Solving for Uy, Initial residual = 0.00746495, Final residual = 3.69374e-07, No Iterations 3
smoothSolver:  Solving for Uz, Initial residual = 0.008615, Final residual = 5.49643e-07, No Iterations 3
GAMG:  Solving for p, Initial residual = 0.000518904, Final residual = 2.33811e-06, No Iterations 4
GAMG:  Solving for p, Initial residual = 2.35539e-06, Final residual = 3.80535e-08, No Iterations 3
time step continuity errors : sum local = 1.61911e-10, global = 8.5712e-11, cumulative = 6.14261e-09
ExecutionTime = 2.07 s  ClockTime = 2 s

Courant Number mean: 0.514527 max: 0.702816
deltaT = 0.0254524
Time = 1.00405

PIMPLE: iteration 1
smoothSolver:  Solving for Ux, Initial residual = 0.00512559, Final residual = 3.35639e-07, No Iterations 3
smoothSolver:  Solving for Uy, Initial residual = 0.00710359, Final residual = 3.49624e-07, No Iterations 3
smoothSolver:  Solving for Uz, Initial residual = 0.00829757, Final residual = 5.28647e-07, No Iterations 3
GAMG:  Solving for p, Initial residual = 0.000505385, Final residual = 2.31172e-06, No Iterations 4
GAMG:  Solving for p, Initial residual = 2.32808e-06, Final residual = 3.98787e-08, No Iterations 3
time step continuity errors : sum local = 1.67283e-10, global = 9.17832e-11, cumulative = 6.23439e-09
ExecutionTime = 2.12 s  ClockTime = 2 s

Courant Number mean: 0.512514 max: 0.702446
deltaT = 0.0253638
Time = 1.02941

PIMPLE: iteration 1
smoothSolver:  Solving for Ux, Initial residual = 0.00490767, Final residual = 3.22768e-07, No Iterations 3
smoothSolver:  Solving for Uy, Initial residual = 0.00676933, Final residual = 3.32587e-07, No Iterations 3
smoothSolver:  Solving for Uz, Initial residual = 0.00801141, Final residual = 5.09911e-07, No Iterations 3
GAMG:  Solving for p, Initial residual = 0.000482846, Final residual = 2.2982e-06, No Iterations 4
GAMG:  Solving for p, Initial residual = 2.31378e-06, Final residual = 4.25731e-08, No Iterations 3
time step continuity errors : sum local = 1.76267e-10, global = 1.0241e-10, cumulative = 6.3368e-09
ExecutionTime = 2.17 s  ClockTime = 2 s

Courant Number mean: 0.510776 max: 0.70261
deltaT = 0.0252696
Time = 1.05468

PIMPLE: iteration 1
smoothSolver:  Solving for Ux, Initial residual = 0.00470091, Final residual = 3.10126e-07, No Iterations 3
smoothSolver:  Solving for Uy, Initial residual = 0.00646219, Final residual = 3.16037e-07, No Iterations 3
smoothSolver:  Solving for Uz, Initial residual = 0.00774973, Final residual = 4.91566e-07, No Iterations 3
GAMG:  Solving for p, Initial residual = 0.000475203, Final residual = 2.27254e-06, No Iterations 4
GAMG:  Solving for p, Initial residual = 2.2873e-06, Final residual = 4.58953e-08, No Iterations 3
time step continuity errors : sum local = 1.87545e-10, global = 1.14797e-10, cumulative = 6.4516e-09
ExecutionTime = 2.22 s  ClockTime = 2 s

Courant Number mean: 0.508924 max: 0.702688
deltaT = 0.0251729
Time = 1.07985

PIMPLE: iteration 1
smoothSolver:  Solving for Ux, Initial residual = 0.00450471, Final residual = 2.97761e-07, No Iterations 3
smoothSolver:  Solving for Uy, Initial residual = 0.00615521, Final residual = 3.00063e-07, No Iterations 3
smoothSolver:  Solving for Uz, Initial residual = 0.0074855, Final residual = 4.74047e-07, No Iterations 3
GAMG:  Solving for p, Initial residual = 0.000454173, Final residual = 2.26746e-06, No Iterations 4
GAMG:  Solving for p, Initial residual = 2.28157e-06, Final residual = 4.68289e-08, No Iterations 3
time step continuity errors : sum local = 1.88876e-10, global = 1.16809e-10, cumulative = 6.56841e-09
ExecutionTime = 2.26 s  ClockTime = 2 s

Courant Number mean: 0.507022 max: 0.702704
deltaT = 0.0250761
Time = 1.10493

PIMPLE: iteration 1
smoothSolver:  Solving for Ux, Initial residual = 0.00431942, Final residual = 2.85815e-07, No Iterations 3
smoothSolver:  Solving for Uy, Initial residual = 0.00588057, Final residual = 2.85418e-07, No Iterations 3
smoothSolver:  Solving for Uz, Initial residual = 0.00725609, Final residual = 4.56924e-07, No Iterations 3
GAMG:  Solving for p, Initial residual = 0.00044724, Final residual = 2.242e-06, No Iterations 4
GAMG:  Solving for p, Initial residual = 2.25538e-06, Final residual = 4.70316e-08, No Iterations 3
time step continuity errors : sum local = 1.87265e-10, global = 1.16168e-10, cumulative = 6.68458e-09
ExecutionTime = 2.31 s  ClockTime = 2 s

Courant Number mean: 0.505114 max: 0.70265
deltaT = 0.0249815
Time = 1.12991

PIMPLE: iteration 1
smoothSolver:  Solving for Ux, Initial residual = 0.00414421, Final residual = 2.74455e-07, No Iterations 3
smoothSolver:  Solving for Uy, Initial residual = 0.00562424, Final residual = 2.71719e-07, No Iterations 3
smoothSolver:  Solving for Uz, Initial residual = 0.00702295, Final residual = 4.40749e-07, No Iterations 3
GAMG:  Solving for p, Initial residual = 0.000423823, Final residual = 2.17155e-06, No Iterations 4
GAMG:  Solving for p, Initial residual = 2.18395e-06, Final residual = 4.70713e-08, No Iterations 3
time step continuity errors : sum local = 1.85095e-10, global = 1.16292e-10, cumulative = 6.80087e-09
ExecutionTime = 2.37 s  ClockTime = 3 s

Courant Number mean: 0.50325 max: 0.702524
deltaT = 0.0248918
Time = 1.1548

PIMPLE: iteration 1
smoothSolver:  Solving for Ux, Initial residual = 0.00397872, Final residual = 2.63843e-07, No Iterations 3
smoothSolver:  Solving for Uy, Initial residual = 0.00537305, Final residual = 2.59166e-07, No Iterations 3
smoothSolver:  Solving for Uz, Initial residual = 0.00680437, Final residual = 4.2585e-07, No Iterations 3
GAMG:  Solving for p, Initial residual = 0.000419516, Final residual = 2.08475e-06, No Iterations 4
GAMG:  Solving for p, Initial residual = 2.09616e-06, Final residual = 4.67593e-08, No Iterations 3
time step continuity errors : sum local = 1.81682e-10, global = 1.15672e-10, cumulative = 6.91654e-09
ExecutionTime = 2.42 s  ClockTime = 3 s

Courant Number mean: 0.501482 max: 0.70252
deltaT = 0.0248025
Time = 1.17961

PIMPLE: iteration 1
smoothSolver:  Solving for Ux, Initial residual = 0.00382185, Final residual = 2.53687e-07, No Iterations 3
smoothSolver:  Solving for Uy, Initial residual = 0.00514865, Final residual = 2.46996e-07, No Iterations 3
smoothSolver:  Solving for Uz, Initial residual = 0.00660925, Final residual = 4.11499e-07, No Iterations 3
GAMG:  Solving for p, Initial residual = 0.000397627, Final residual = 2.00006e-06, No Iterations 4
GAMG:  Solving for p, Initial residual = 2.01057e-06, Final residual = 4.53844e-08, No Iterations 3
time step continuity errors : sum local = 1.74286e-10, global = 1.11778e-10, cumulative = 7.02832e-09
ExecutionTime = 2.47 s  ClockTime = 3 s

Courant Number mean: 0.499722 max: 0.702355
deltaT = 0.0247193
Time = 1.20432

PIMPLE: iteration 1
smoothSolver:  Solving for Ux, Initial residual = 0.00367365, Final residual = 2.44255e-07, No Iterations 3
smoothSolver:  Solving for Uy, Initial residual = 0.00492952, Final residual = 2.36175e-07, No Iterations 3
smoothSolver:  Solving for Uz, Initial residual = 0.00641101, Final residual = 3.98002e-07, No Iterations 3
GAMG:  Solving for p, Initial residual = 0.000385829, Final residual = 1.87964e-06, No Iterations 4
GAMG:  Solving for p, Initial residual = 1.88911e-06, Final residual = 4.4675e-08, No Iterations 3
time step continuity errors : sum local = 1.69666e-10, global = 1.10504e-10, cumulative = 7.13882e-09
ExecutionTime = 2.52 s  ClockTime = 3 s

Courant Number mean: 0.498084 max: 0.702404
deltaT = 0.0246347
Time = 1.22896

PIMPLE: iteration 1
smoothSolver:  Solving for Ux, Initial residual = 0.00353227, Final residual = 2.35123e-07, No Iterations 3
smoothSolver:  Solving for Uy, Initial residual = 0.00472266, Final residual = 2.25706e-07, No Iterations 3
smoothSolver:  Solving for Uz, Initial residual = 0.00622563, Final residual = 3.85449e-07, No Iterations 3
GAMG:  Solving for p, Initial residual = 0.000363053, Final residual = 1.76301e-06, No Iterations 4
GAMG:  Solving for p, Initial residual = 1.77153e-06, Final residual = 4.09558e-08, No Iterations 3
time step continuity errors : sum local = 1.53841e-10, global = 1.00795e-10, cumulative = 7.23962e-09
ExecutionTime = 2.57 s  ClockTime = 3 s

Courant Number mean: 0.496416 max: 0.702214
deltaT = 0.024557
Time = 1.25352

PIMPLE: iteration 1
smoothSolver:  Solving for Ux, Initial residual = 0.00339879, Final residual = 2.26669e-07, No Iterations 3
smoothSolver:  Solving for Uy, Initial residual = 0.00452846, Final residual = 2.1611e-07, No Iterations 3
smoothSolver:  Solving for Uz, Initial residual = 0.00605677, Final residual = 3.73681e-07, No Iterations 3
GAMG:  Solving for p, Initial residual = 0.000354522, Final residual = 1.60571e-06, No Iterations 4
GAMG:  Solving for p, Initial residual = 1.61316e-06, Final residual = 3.78076e-08, No Iterations 3
time step continuity errors : sum local = 1.40552e-10, global = 9.38363e-11, cumulative = 7.33346e-09
ExecutionTime = 2.62 s  ClockTime = 3 s

Courant Number mean: 0.494886 max: 0.702283
deltaT = 0.0244772
Time = 1.27799

PIMPLE: iteration 1
smoothSolver:  Solving for Ux, Initial residual = 0.00327116, Final residual = 2.18441e-07, No Iterations 3
smoothSolver:  Solving for Uy, Initial residual = 0.0043476, Final residual = 2.07035e-07, No Iterations 3
smoothSolver:  Solving for Uz, Initial residual = 0.00589407, Final residual = 3.62471e-07, No Iterations 3
GAMG:  Solving for p, Initial residual = 0.000332915, Final residual = 1.47602e-06, No Iterations 4
GAMG:  Solving for p, Initial residual = 1.4826e-06, Final residual = 3.25612e-08, No Iterations 3
time step continuity errors : sum local = 1.19807e-10, global = 8.02425e-11, cumulative = 7.4137e-09
ExecutionTime = 2.67 s  ClockTime = 3 s

Courant Number mean: 0.493312 max: 0.702123
deltaT = 0.0244032
Time = 1.3024

PIMPLE: iteration 1
smoothSolver:  Solving for Ux, Initial residual = 0.00315021, Final residual = 2.10777e-07, No Iterations 3
smoothSolver:  Solving for Uy, Initial residual = 0.00417381, Final residual = 1.98727e-07, No Iterations 3
smoothSolver:  Solving for Uz, Initial residual = 0.00573879, Final residual = 3.51849e-07, No Iterations 3
GAMG:  Solving for p, Initial residual = 0.000320807, Final residual = 1.33772e-06, No Iterations 4
GAMG:  Solving for p, Initial residual = 1.34345e-06, Final residual = 2.77067e-08, No Iterations 3
time step continuity errors : sum local = 1.00953e-10, global = 6.64375e-11, cumulative = 7.48014e-09
ExecutionTime = 2.71 s  ClockTime = 3 s

Courant Number mean: 0.491855 max: 0.702131
deltaT = 0.0243291
Time = 1.32673

PIMPLE: iteration 1
smoothSolver:  Solving for Ux, Initial residual = 0.00303469, Final residual = 2.0345e-07, No Iterations 3
smoothSolver:  Solving for Uy, Initial residual = 0.00401654, Final residual = 1.90798e-07, No Iterations 3
smoothSolver:  Solving for Uz, Initial residual = 0.00559069, Final residual = 3.41644e-07, No Iterations 3
GAMG:  Solving for p, Initial residual = 0.000313443, Final residual = 1.22854e-06, No Iterations 4
GAMG:  Solving for p, Initial residual = 1.2336e-06, Final residual = 2.30692e-08, No Iterations 3
time step continuity errors : sum local = 8.32535e-11, global = 4.96751e-11, cumulative = 7.52981e-09
ExecutionTime = 2.77 s  ClockTime = 3 s

Courant Number mean: 0.490395 max: 0.702039
deltaT = 0.0242585
Time = 1.35098

PIMPLE: iteration 1
smoothSolver:  Solving for Ux, Initial residual = 0.00292703, Final residual = 1.96563e-07, No Iterations 3
smoothSolver:  Solving for Uy, Initial residual = 0.00386875, Final residual = 1.83476e-07, No Iterations 3
smoothSolver:  Solving for Uz, Initial residual = 0.00545247, Final residual = 3.32149e-07, No Iterations 3
GAMG:  Solving for p, Initial residual = 0.000304689, Final residual = 1.12477e-06, No Iterations 4
GAMG:  Solving for p, Initial residual = 1.12923e-06, Final residual = 1.95564e-08, No Iterations 3
time step continuity errors : sum local = 6.99286e-11, global = 3.87942e-11, cumulative = 7.56861e-09
ExecutionTime = 2.81 s  ClockTime = 3 s

Courant Number mean: 0.489003 max: 0.701989
deltaT = 0.0241897
Time = 1.37517

PIMPLE: iteration 1
smoothSolver:  Solving for Ux, Initial residual = 0.00282553, Final residual = 1.90041e-07, No Iterations 3
smoothSolver:  Solving for Uy, Initial residual = 0.00372508, Final residual = 1.7646e-07, No Iterations 3
smoothSolver:  Solving for Uz, Initial residual = 0.00531861, Final residual = 3.22987e-07, No Iterations 3
GAMG:  Solving for p, Initial residual = 0.000286624, Final residual = 1.08538e-06, No Iterations 4
GAMG:  Solving for p, Initial residual = 1.08951e-06, Final residual = 8.7099e-08, No Iterations 2
time step continuity errors : sum local = 3.08675e-10, global = -6.84725e-11, cumulative = 7.50013e-09
ExecutionTime = 2.86 s  ClockTime = 3 s

Courant Number mean: 0.487648 max: 0.701961
deltaT = 0.0241222
Time = 1.3993

PIMPLE: iteration 1
smoothSolver:  Solving for Ux, Initial residual = 0.00272858, Final residual = 1.83786e-07, No Iterations 3
smoothSolver:  Solving for Uy, Initial residual = 0.00359129, Final residual = 1.69897e-07, No Iterations 3
smoothSolver:  Solving for Uz, Initial residual = 0.00520014, Final residual = 3.14592e-07, No Iterations 3
GAMG:  Solving for p, Initial residual = 0.000275243, Final residual = 2.59759e-06, No Iterations 3
GAMG:  Solving for p, Initial residual = 2.60683e-06, Final residual = 6.69286e-08, No Iterations 3
time step continuity errors : sum local = 2.3516e-10, global = -5.14777e-11, cumulative = 7.44865e-09
ExecutionTime = 2.9 s  ClockTime = 3 s

Courant Number mean: 0.486317 max: 0.701857
deltaT = 0.0240583
Time = 1.42335

PIMPLE: iteration 1
smoothSolver:  Solving for Ux, Initial residual = 0.00263603, Final residual = 1.77886e-07, No Iterations 3
smoothSolver:  Solving for Uy, Initial residual = 0.00346839, Final residual = 1.63803e-07, No Iterations 3
smoothSolver:  Solving for Uz, Initial residual = 0.00507596, Final residual = 3.06262e-07, No Iterations 3
GAMG:  Solving for p, Initial residual = 0.000271527, Final residual = 2.39112e-06, No Iterations 3
GAMG:  Solving for p, Initial residual = 2.39928e-06, Final residual = 5.8457e-08, No Iterations 3
time step continuity errors : sum local = 2.03695e-10, global = -4.68733e-11, cumulative = 7.40178e-09
ExecutionTime = 2.95 s  ClockTime = 3 s

Courant Number mean: 0.48506 max: 0.701888
deltaT = 0.0239936
Time = 1.44735

PIMPLE: iteration 1
smoothSolver:  Solving for Ux, Initial residual = 0.00254727, Final residual = 1.72142e-07, No Iterations 3
smoothSolver:  Solving for Uy, Initial residual = 0.00334802, Final residual = 1.5788e-07, No Iterations 3
smoothSolver:  Solving for Uz, Initial residual = 0.0049607, Final residual = 2.983e-07, No Iterations 3
GAMG:  Solving for p, Initial residual = 0.000253287, Final residual = 2.22855e-06, No Iterations 3
GAMG:  Solving for p, Initial residual = 2.23584e-06, Final residual = 5.48789e-08, No Iterations 3
time step continuity errors : sum local = 1.8966e-10, global = -4.65293e-11, cumulative = 7.35525e-09
ExecutionTime = 3 s  ClockTime = 3 s

Courant Number mean: 0.483784 max: 0.70177
deltaT = 0.0239331
Time = 1.47128

PIMPLE: iteration 1
smoothSolver:  Solving for Ux, Initial residual = 0.00246265, Final residual = 1.66733e-07, No Iterations 3
smoothSolver:  Solving for Uy, Initial residual = 0.00323523, Final residual = 1.52245e-07, No Iterations 3
smoothSolver:  Solving for Uz, Initial residual = 0.00485558, Final residual = 2.9102e-07, No Iterations 3
GAMG:  Solving for p, Initial residual = 0.000243095, Final residual = 2.10129e-06, No Iterations 3
GAMG:  Solving for p, Initial residual = 2.10789e-06, Final residual = 5.19584e-08, No Iterations 3
time step continuity errors : sum local = 1.7817e-10, global = -4.49202e-11, cumulative = 7.31033e-09
ExecutionTime = 3.04 s  ClockTime = 3 s

Courant Number mean: 0.482592 max: 0.701784
deltaT = 0.0238723
Time = 1.49515

PIMPLE: iteration 1
smoothSolver:  Solving for Ux, Initial residual = 0.00238146, Final residual = 1.61489e-07, No Iterations 3
smoothSolver:  Solving for Uy, Initial residual = 0.00312459, Final residual = 1.46956e-07, No Iterations 3
smoothSolver:  Solving for Uz, Initial residual = 0.00475254, Final residual = 2.83858e-07, No Iterations 3
GAMG:  Solving for p, Initial residual = 0.000232754, Final residual = 2.01683e-06, No Iterations 3
GAMG:  Solving for p, Initial residual = 2.02291e-06, Final residual = 4.94322e-08, No Iterations 3
time step continuity errors : sum local = 1.68206e-10, global = -4.12342e-11, cumulative = 7.2691e-09
ExecutionTime = 3.08 s  ClockTime = 3 s

Courant Number mean: 0.481393 max: 0.701708
deltaT = 0.0238142
Time = 1.51897

PIMPLE: iteration 1
smoothSolver:  Solving for Ux, Initial residual = 0.0023038, Final residual = 1.56512e-07, No Iterations 3
smoothSolver:  Solving for Uy, Initial residual = 0.00302258, Final residual = 1.41935e-07, No Iterations 3
smoothSolver:  Solving for Uz, Initial residual = 0.00464992, Final residual = 2.76763e-07, No Iterations 3
GAMG:  Solving for p, Initial residual = 0.000229187, Final residual = 1.9627e-06, No Iterations 3
GAMG:  Solving for p, Initial residual = 1.96839e-06, Final residual = 4.78829e-08, No Iterations 3
time step continuity errors : sum local = 1.61733e-10, global = -3.97429e-11, cumulative = 7.22936e-09
ExecutionTime = 3.13 s  ClockTime = 3 s

Courant Number mean: 0.480248 max: 0.701667
deltaT = 0.0237576
Time = 1.54273

PIMPLE: iteration 1
smoothSolver:  Solving for Ux, Initial residual = 0.00222936, Final residual = 1.51763e-07, No Iterations 3
smoothSolver:  Solving for Uy, Initial residual = 0.00292699, Final residual = 1.37053e-07, No Iterations 3
smoothSolver:  Solving for Uz, Initial residual = 0.00455318, Final residual = 2.70371e-07, No Iterations 3
GAMG:  Solving for p, Initial residual = 0.000215356, Final residual = 1.88119e-06, No Iterations 3
GAMG:  Solving for p, Initial residual = 1.88642e-06, Final residual = 4.55596e-08, No Iterations 3
time step continuity errors : sum local = 1.52786e-10, global = -3.58156e-11, cumulative = 7.19354e-09
ExecutionTime = 3.17 s  ClockTime = 3 s

Courant Number mean: 0.479134 max: 0.701648
deltaT = 0.0237018
Time = 1.56643

PIMPLE: iteration 1
smoothSolver:  Solving for Ux, Initial residual = 0.00215775, Final residual = 1.47178e-07, No Iterations 3
smoothSolver:  Solving for Uy, Initial residual = 0.00283028, Final residual = 1.32474e-07, No Iterations 3
smoothSolver:  Solving for Uz, Initial residual = 0.00446233, Final residual = 2.64078e-07, No Iterations 3
GAMG:  Solving for p, Initial residual = 0.000212816, Final residual = 1.82757e-06, No Iterations 3
GAMG:  Solving for p, Initial residual = 1.83245e-06, Final residual = 4.43263e-08, No Iterations 3
time step continuity errors : sum local = 1.47612e-10, global = -3.2703e-11, cumulative = 7.16084e-09
ExecutionTime = 3.22 s  ClockTime = 3 s

Courant Number mean: 0.478034 max: 0.701683
deltaT = 0.0236449
Time = 1.59007

PIMPLE: iteration 1
smoothSolver:  Solving for Ux, Initial residual = 0.00208879, Final residual = 1.42699e-07, No Iterations 3
smoothSolver:  Solving for Uy, Initial residual = 0.00274208, Final residual = 1.27967e-07, No Iterations 3
smoothSolver:  Solving for Uz, Initial residual = 0.00437127, Final residual = 2.57699e-07, No Iterations 3
GAMG:  Solving for p, Initial residual = 0.000203115, Final residual = 1.79053e-06, No Iterations 3
GAMG:  Solving for p, Initial residual = 1.79512e-06, Final residual = 4.34939e-08, No Iterations 3
time step continuity errors : sum local = 1.43832e-10, global = -3.17297e-11, cumulative = 7.12911e-09
ExecutionTime = 3.27 s  ClockTime = 3 s

Courant Number mean: 0.476913 max: 0.701784
deltaT = 0.0235848
Time = 1.61366

PIMPLE: iteration 1
smoothSolver:  Solving for Ux, Initial residual = 0.00202216, Final residual = 1.38221e-07, No Iterations 3
smoothSolver:  Solving for Uy, Initial residual = 0.00265575, Final residual = 1.23487e-07, No Iterations 3
smoothSolver:  Solving for Uz, Initial residual = 0.00428564, Final residual = 2.51564e-07, No Iterations 3
GAMG:  Solving for p, Initial residual = 0.000189608, Final residual = 1.75293e-06, No Iterations 3
GAMG:  Solving for p, Initial residual = 1.75724e-06, Final residual = 4.33014e-08, No Iterations 3
time step continuity errors : sum local = 1.42178e-10, global = -3.01253e-11, cumulative = 7.09898e-09
ExecutionTime = 3.31 s  ClockTime = 3 s

Courant Number mean: 0.475725 max: 0.701717
deltaT = 0.0235271
Time = 1.63718

PIMPLE: iteration 1
smoothSolver:  Solving for Ux, Initial residual = 0.00195821, Final residual = 1.33932e-07, No Iterations 3
smoothSolver:  Solving for Uy, Initial residual = 0.00257672, Final residual = 1.19288e-07, No Iterations 3
smoothSolver:  Solving for Uz, Initial residual = 0.00419875, Final residual = 2.45427e-07, No Iterations 3
GAMG:  Solving for p, Initial residual = 0.000189115, Final residual = 1.71828e-06, No Iterations 3
GAMG:  Solving for p, Initial residual = 1.72233e-06, Final residual = 4.26746e-08, No Iterations 3
time step continuity errors : sum local = 1.39158e-10, global = -2.84133e-11, cumulative = 7.07057e-09
ExecutionTime = 3.37 s  ClockTime = 4 s

Courant Number mean: 0.474585 max: 0.701687
deltaT = 0.0234706
Time = 1.66065

PIMPLE: iteration 1
smoothSolver:  Solving for Ux, Initial residual = 0.0018967, Final residual = 1.29812e-07, No Iterations 3
smoothSolver:  Solving for Uy, Initial residual = 0.00250092, Final residual = 1.15264e-07, No Iterations 3
smoothSolver:  Solving for Uz, Initial residual = 0.0041126, Final residual = 2.39435e-07, No Iterations 3
GAMG:  Solving for p, Initial residual = 0.000186685, Final residual = 1.66812e-06, No Iterations 3
GAMG:  Solving for p, Initial residual = 1.6719e-06, Final residual = 4.38606e-08, No Iterations 3
time step continuity errors : sum local = 1.42069e-10, global = -2.79867e-11, cumulative = 7.04258e-09
ExecutionTime = 3.41 s  ClockTime = 4 s

Courant Number mean: 0.473468 max: 0.701664
deltaT = 0.0234149
Time = 1.68407

PIMPLE: iteration 1
smoothSolver:  Solving for Ux, Initial residual = 0.00183753, Final residual = 1.25838e-07, No Iterations 3
smoothSolver:  Solving for Uy, Initial residual = 0.00242252, Final residual = 1.11329e-07, No Iterations 3
smoothSolver:  Solving for Uz, Initial residual = 0.00403712, Final residual = 2.34084e-07, No Iterations 3
GAMG:  Solving for p, Initial residual = 0.000170488, Final residual = 1.6475e-06, No Iterations 3
GAMG:  Solving for p, Initial residual = 1.65108e-06, Final residual = 4.24729e-08, No Iterations 3
time step continuity errors : sum local = 1.36674e-10, global = -2.6669e-11, cumulative = 7.01591e-09
ExecutionTime = 3.45 s  ClockTime = 4 s

Courant Number mean: 0.472367 max: 0.701605
deltaT = 0.0233613
Time = 1.70743

PIMPLE: iteration 1
smoothSolver:  Solving for Ux, Initial residual = 0.00178063, Final residual = 1.2204e-07, No Iterations 3
smoothSolver:  Solving for Uy, Initial residual = 0.0023541, Final residual = 1.07632e-07, No Iterations 3
smoothSolver:  Solving for Uz, Initial residual = 0.00396063, Final residual = 2.28773e-07, No Iterations 3
GAMG:  Solving for p, Initial residual = 0.000166778, Final residual = 1.61407e-06, No Iterations 3
GAMG:  Solving for p, Initial residual = 1.61744e-06, Final residual = 4.21833e-08, No Iterations 3
time step continuity errors : sum local = 1.34885e-10, global = -2.58048e-11, cumulative = 6.99011e-09
ExecutionTime = 3.51 s  ClockTime = 4 s

Courant Number mean: 0.471309 max: 0.701602
deltaT = 0.023308
Time = 1.73074

PIMPLE: iteration 1
smoothSolver:  Solving for Ux, Initial residual = 0.00172578, Final residual = 1.18364e-07, No Iterations 3
smoothSolver:  Solving for Uy, Initial residual = 0.00228593, Final residual = 1.04115e-07, No Iterations 3
smoothSolver:  Solving for Uz, Initial residual = 0.00388109, Final residual = 2.23435e-07, No Iterations 3
GAMG:  Solving for p, Initial residual = 0.00016202, Final residual = 1.58769e-06, No Iterations 3
GAMG:  Solving for p, Initial residual = 1.59088e-06, Final residual = 4.22205e-08, No Iterations 3
time step continuity errors : sum local = 1.34166e-10, global = -2.52577e-11, cumulative = 6.96485e-09
ExecutionTime = 3.55 s  ClockTime = 4 s

Courant Number mean: 0.470255 max: 0.701556
deltaT = 0.0232563
Time = 1.754

PIMPLE: iteration 1
smoothSolver:  Solving for Ux, Initial residual = 0.00167303, Final residual = 1.1485e-07, No Iterations 3
smoothSolver:  Solving for Uy, Initial residual = 0.00222077, Final residual = 1.00719e-07, No Iterations 3
smoothSolver:  Solving for Uz, Initial residual = 0.00381017, Final residual = 2.1862e-07, No Iterations 3
GAMG:  Solving for p, Initial residual = 0.000155944, Final residual = 1.5502e-06, No Iterations 3
GAMG:  Solving for p, Initial residual = 1.55319e-06, Final residual = 4.20958e-08, No Iterations 3
time step continuity errors : sum local = 1.32965e-10, global = -2.48103e-11, cumulative = 6.94004e-09
ExecutionTime = 3.6 s  ClockTime = 4 s

Courant Number mean: 0.469233 max: 0.701516
deltaT = 0.023206
Time = 1.7772

PIMPLE: iteration 1
smoothSolver:  Solving for Ux, Initial residual = 0.00162198, Final residual = 1.11463e-07, No Iterations 3
smoothSolver:  Solving for Uy, Initial residual = 0.00215733, Final residual = 9.7498e-08, No Iterations 3
smoothSolver:  Solving for Uz, Initial residual = 0.00373926, Final residual = 2.13917e-07, No Iterations 3
GAMG:  Solving for p, Initial residual = 0.000151145, Final residual = 6.05591e-07, No Iterations 4
GAMG:  Solving for p, Initial residual = 6.06758e-07, Final residual = 4.32601e-08, No Iterations 2
time step continuity errors : sum local = 1.35834e-10, global = -2.54072e-11, cumulative = 6.91463e-09
ExecutionTime = 3.65 s  ClockTime = 4 s

Courant Number mean: 0.46824 max: 0.701508
deltaT = 0.0231561
Time = 1.80036

PIMPLE: iteration 1
smoothSolver:  Solving for Ux, Initial residual = 0.00157245, Final residual = 1.08158e-07, No Iterations 3
smoothSolver:  Solving for Uy, Initial residual = 0.00209644, Final residual = 9.44068e-08, No Iterations 3
smoothSolver:  Solving for Uz, Initial residual = 0.00366979, Final residual = 2.09155e-07, No Iterations 3
GAMG:  Solving for p, Initial residual = 0.000147516, Final residual = 5.91597e-07, No Iterations 4
GAMG:  Solving for p, Initial residual = 5.92692e-07, Final residual = 4.30255e-08, No Iterations 2
time step continuity errors : sum local = 1.34324e-10, global = -2.53827e-11, cumulative = 6.88925e-09
ExecutionTime = 3.69 s  ClockTime = 4 s

Courant Number mean: 0.467254 max: 0.701456
deltaT = 0.0231081
Time = 1.82347

PIMPLE: iteration 1
smoothSolver:  Solving for Ux, Initial residual = 0.00152463, Final residual = 1.04983e-07, No Iterations 3
smoothSolver:  Solving for Uy, Initial residual = 0.00203901, Final residual = 9.14201e-08, No Iterations 3
smoothSolver:  Solving for Uz, Initial residual = 0.00360457, Final residual = 2.04987e-07, No Iterations 3
GAMG:  Solving for p, Initial residual = 0.000140289, Final residual = 5.82513e-07, No Iterations 4
GAMG:  Solving for p, Initial residual = 5.83547e-07, Final residual = 4.37031e-08, No Iterations 2
time step continuity errors : sum local = 1.35684e-10, global = -2.61454e-11, cumulative = 6.8631e-09
ExecutionTime = 3.74 s  ClockTime = 4 s

Courant Number mean: 0.466304 max: 0.701441
deltaT = 0.0230606
Time = 1.84653

PIMPLE: iteration 1
smoothSolver:  Solving for Ux, Initial residual = 0.00147852, Final residual = 1.01915e-07, No Iterations 3
smoothSolver:  Solving for Uy, Initial residual = 0.00198367, Final residual = 8.85888e-08, No Iterations 3
smoothSolver:  Solving for Uz, Initial residual = 0.0035395, Final residual = 2.00748e-07, No Iterations 3
GAMG:  Solving for p, Initial residual = 0.00013881, Final residual = 5.74344e-07, No Iterations 4
GAMG:  Solving for p, Initial residual = 5.75323e-07, Final residual = 4.43366e-08, No Iterations 2
time step continuity errors : sum local = 1.36905e-10, global = -2.70581e-11, cumulative = 6.83605e-09
ExecutionTime = 3.78 s  ClockTime = 4 s

Courant Number mean: 0.465366 max: 0.701412
deltaT = 0.0230142
Time = 1.86954

PIMPLE: iteration 1
smoothSolver:  Solving for Ux, Initial residual = 0.00143409, Final residual = 9.89553e-08, No Iterations 3
smoothSolver:  Solving for Uy, Initial residual = 0.0019299, Final residual = 8.59135e-08, No Iterations 3
smoothSolver:  Solving for Uz, Initial residual = 0.0034745, Final residual = 1.96588e-07, No Iterations 3
GAMG:  Solving for p, Initial residual = 0.000137076, Final residual = 5.6476e-07, No Iterations 4
GAMG:  Solving for p, Initial residual = 5.65683e-07, Final residual = 4.56467e-08, No Iterations 2
time step continuity errors : sum local = 1.40207e-10, global = -2.92497e-11, cumulative = 6.8068e-09
ExecutionTime = 3.82 s  ClockTime = 4 s

Courant Number mean: 0.464449 max: 0.701366
deltaT = 0.0229694
Time = 1.89251

PIMPLE: iteration 1
smoothSolver:  Solving for Ux, Initial residual = 0.00139132, Final residual = 9.61147e-08, No Iterations 3
smoothSolver:  Solving for Uy, Initial residual = 0.00187827, Final residual = 8.32695e-08, No Iterations 3
smoothSolver:  Solving for Uz, Initial residual = 0.00341743, Final residual = 1.92991e-07, No Iterations 3
GAMG:  Solving for p, Initial residual = 0.000124919, Final residual = 5.61085e-07, No Iterations 4
GAMG:  Solving for p, Initial residual = 5.61966e-07, Final residual = 4.68565e-08, No Iterations 2
time step continuity errors : sum local = 1.43189e-10, global = -3.05918e-11, cumulative = 6.7762e-09
ExecutionTime = 3.87 s  ClockTime = 4 s

Courant Number mean: 0.463563 max: 0.701369
deltaT = 0.0229246
Time = 1.91543

PIMPLE: iteration 1
smoothSolver:  Solving for Ux, Initial residual = 0.00135001, Final residual = 9.33554e-08, No Iterations 3
smoothSolver:  Solving for Uy, Initial residual = 0.00182834, Final residual = 8.07966e-08, No Iterations 3
smoothSolver:  Solving for Uz, Initial residual = 0.00335743, Final residual = 1.89294e-07, No Iterations 3
GAMG:  Solving for p, Initial residual = 0.000125472, Final residual = 5.6023e-07, No Iterations 4
GAMG:  Solving for p, Initial residual = 5.61072e-07, Final residual = 4.86775e-08, No Iterations 2
time step continuity errors : sum local = 1.48006e-10, global = -3.22363e-11, cumulative = 6.74397e-09
ExecutionTime = 3.92 s  ClockTime = 4 s

Courant Number mean: 0.462677 max: 0.701324
deltaT = 0.0228813
Time = 1.93832

PIMPLE: iteration 1
smoothSolver:  Solving for Ux, Initial residual = 0.0013102, Final residual = 9.07085e-08, No Iterations 3
smoothSolver:  Solving for Uy, Initial residual = 0.00178185, Final residual = 7.84852e-08, No Iterations 3
smoothSolver:  Solving for Uz, Initial residual = 0.00329654, Final residual = 1.8561e-07, No Iterations 3
GAMG:  Solving for p, Initial residual = 0.000126505, Final residual = 5.62259e-07, No Iterations 4
GAMG:  Solving for p, Initial residual = 5.63069e-07, Final residual = 5.15328e-08, No Iterations 2
time step continuity errors : sum local = 1.55926e-10, global = -3.43643e-11, cumulative = 6.7096e-09
ExecutionTime = 3.96 s  ClockTime = 4 s

Courant Number mean: 0.461822 max: 0.701298
deltaT = 0.0228389
Time = 1.96115

PIMPLE: iteration 1
smoothSolver:  Solving for Ux, Initial residual = 0.00127181, Final residual = 8.81541e-08, No Iterations 3
smoothSolver:  Solving for Uy, Initial residual = 0.00173658, Final residual = 7.61658e-08, No Iterations 3
smoothSolver:  Solving for Uz, Initial residual = 0.00324406, Final residual = 1.82603e-07, No Iterations 3
GAMG:  Solving for p, Initial residual = 0.000116026, Final residual = 5.65073e-07, No Iterations 4
GAMG:  Solving for p, Initial residual = 5.65854e-07, Final residual = 5.32764e-08, No Iterations 2
time step continuity errors : sum local = 1.60438e-10, global = -3.46563e-11, cumulative = 6.67495e-09
ExecutionTime = 4.01 s  ClockTime = 4 s

Courant Number mean: 0.460984 max: 0.701283
deltaT = 0.0227971
Time = 1.98395

PIMPLE: iteration 1
smoothSolver:  Solving for Ux, Initial residual = 0.00123475, Final residual = 8.56783e-08, No Iterations 3
smoothSolver:  Solving for Uy, Initial residual = 0.00169173, Final residual = 7.40067e-08, No Iterations 3
smoothSolver:  Solving for Uz, Initial residual = 0.00319093, Final residual = 1.79534e-07, No Iterations 3
GAMG:  Solving for p, Initial residual = 0.000114287, Final residual = 5.73144e-07, No Iterations 4
GAMG:  Solving for p, Initial residual = 5.73903e-07, Final residual = 5.53991e-08, No Iterations 2
time step continuity errors : sum local = 1.66056e-10, global = -3.49671e-11, cumulative = 6.63998e-09
ExecutionTime = 4.05 s  ClockTime = 4 s

Courant Number mean: 0.460158 max: 0.701242
deltaT = 0.0227568
--> FOAM Warning : 
    From virtual Foam::Time& Foam::Time::operator++()
    in file db/Time/Time.C at line 1225
    Increased the timePrecision from 6 to 7 to distinguish between timeNames at time 2.006708
Time = 2.006708

PIMPLE: iteration 1
smoothSolver:  Solving for Ux, Initial residual = 0.001199, Final residual = 8.32966e-08, No Iterations 3
smoothSolver:  Solving for Uy, Initial residual = 0.00165015, Final residual = 7.19857e-08, No Iterations 3
smoothSolver:  Solving for Uz, Initial residual = 0.00313487, Final residual = 1.76462e-07, No Iterations 3
GAMG:  Solving for p, Initial residual = 0.000111081, Final residual = 5.76191e-07, No Iterations 4
GAMG:  Solving for p, Initial residual = 5.76922e-07, Final residual = 5.74328e-08, No Iterations 2
time step continuity errors : sum local = 1.7138e-10, global = -3.60089e-11, cumulative = 6.60397e-09
ExecutionTime = 4.17 s  ClockTime = 4 s

Courant Number mean: 0.45936 max: 0.701234
deltaT = 0.0227167
Time = 2.029425

PIMPLE: iteration 1
smoothSolver:  Solving for Ux, Initial residual = 0.00116524, Final residual = 8.09907e-08, No Iterations 3
smoothSolver:  Solving for Uy, Initial residual = 0.00160878, Final residual = 6.99389e-08, No Iterations 3
smoothSolver:  Solving for Uz, Initial residual = 0.00308679, Final residual = 1.7411e-07, No Iterations 3
GAMG:  Solving for p, Initial residual = 0.000105422, Final residual = 5.99635e-07, No Iterations 4
GAMG:  Solving for p, Initial residual = 6.00363e-07, Final residual = 5.95023e-08, No Iterations 2
time step continuity errors : sum local = 1.76774e-10, global = -3.63273e-11, cumulative = 6.56764e-09
ExecutionTime = 4.21 s  ClockTime = 4 s

Courant Number mean: 0.458568 max: 0.701205
deltaT = 0.0226777
Time = 2.052103

PIMPLE: iteration 1
smoothSolver:  Solving for Ux, Initial residual = 0.00113292, Final residual = 7.87692e-08, No Iterations 3
smoothSolver:  Solving for Uy, Initial residual = 0.00156999, Final residual = 6.80556e-08, No Iterations 3
smoothSolver:  Solving for Uz, Initial residual = 0.0030371, Final residual = 1.71668e-07, No Iterations 3
GAMG:  Solving for p, Initial residual = 0.000105497, Final residual = 6.25972e-07, No Iterations 4
GAMG:  Solving for p, Initial residual = 6.26699e-07, Final residual = 6.09952e-08, No Iterations 2
time step continuity errors : sum local = 1.80434e-10, global = -3.74723e-11, cumulative = 6.53017e-09
ExecutionTime = 4.27 s  ClockTime = 4 s

Courant Number mean: 0.457797 max: 0.701187
deltaT = 0.0226393
Time = 2.074742

PIMPLE: iteration 1
smoothSolver:  Solving for Ux, Initial residual = 0.00110169, Final residual = 7.66181e-08, No Iterations 3
smoothSolver:  Solving for Uy, Initial residual = 0.00153146, Final residual = 6.62538e-08, No Iterations 3
smoothSolver:  Solving for Uz, Initial residual = 0.0029867, Final residual = 1.69413e-07, No Iterations 3
GAMG:  Solving for p, Initial residual = 0.000102997, Final residual = 6.41948e-07, No Iterations 4
GAMG:  Solving for p, Initial residual = 6.42662e-07, Final residual = 6.15759e-08, No Iterations 2
time step continuity errors : sum local = 1.81389e-10, global = -3.90695e-11, cumulative = 6.4911e-09
ExecutionTime = 4.31 s  ClockTime = 5 s

Courant Number mean: 0.457038 max: 0.701245
deltaT = 0.0225991
Time = 2.097341

PIMPLE: iteration 1
smoothSolver:  Solving for Ux, Initial residual = 0.00107138, Final residual = 7.4483e-08, No Iterations 3
smoothSolver:  Solving for Uy, Initial residual = 0.00149425, Final residual = 6.44505e-08, No Iterations 3
smoothSolver:  Solving for Uz, Initial residual = 0.00294205, Final residual = 1.67517e-07, No Iterations 3
GAMG:  Solving for p, Initial residual = 9.66546e-05, Final residual = 6.71213e-07, No Iterations 4
GAMG:  Solving for p, Initial residual = 6.71925e-07, Final residual = 6.21705e-08, No Iterations 2
time step continuity errors : sum local = 1.82359e-10, global = -4.15533e-11, cumulative = 6.44955e-09
ExecutionTime = 4.36 s  ClockTime = 5 s

Courant Number mean: 0.456242 max: 0.701222
deltaT = 0.0225597
Time = 2.119901

PIMPLE: iteration 1
smoothSolver:  Solving for Ux, Initial residual = 0.00104205, Final residual = 7.24088e-08, No Iterations 3
smoothSolver:  Solving for Uy, Initial residual = 0.00145902, Final residual = 6.27636e-08, No Iterations 3
smoothSolver:  Solving for Uz, Initial residual = 0.00289478, Final residual = 1.65662e-07, No Iterations 3
GAMG:  Solving for p, Initial residual = 9.51062e-05, Final residual = 6.92943e-07, No Iterations 4
GAMG:  Solving for p, Initial residual = 6.93647e-07, Final residual = 6.20739e-08, No Iterations 2
time step continuity errors : sum local = 1.81314e-10, global = -4.43433e-11, cumulative = 6.40521e-09
ExecutionTime = 4.41 s  ClockTime = 5 s

Courant Number mean: 0.455462 max: 0.701194
deltaT = 0.0225213
Time = 2.142422

PIMPLE: iteration 1
smoothSolver:  Solving for Ux, Initial residual = 0.00101364, Final residual = 7.04038e-08, No Iterations 3
smoothSolver:  Solving for Uy, Initial residual = 0.00142399, Final residual = 6.11358e-08, No Iterations 3
smoothSolver:  Solving for Uz, Initial residual = 0.00285088, Final residual = 1.64125e-07, No Iterations 3
GAMG:  Solving for p, Initial residual = 9.16785e-05, Final residual = 7.11013e-07, No Iterations 4
GAMG:  Solving for p, Initial residual = 7.11702e-07, Final residual = 6.21038e-08, No Iterations 2
time step continuity errors : sum local = 1.80663e-10, global = -4.77917e-11, cumulative = 6.35741e-09
ExecutionTime = 4.45 s  ClockTime = 5 s

Courant Number mean: 0.454701 max: 0.701185
deltaT = 0.0224832
Time = 2.164905

PIMPLE: iteration 1
smoothSolver:  Solving for Ux, Initial residual = 0.000986139, Final residual = 6.84553e-08, No Iterations 3
smoothSolver:  Solving for Uy, Initial residual = 0.00139085, Final residual = 5.96023e-08, No Iterations 3
smoothSolver:  Solving for Uz, Initial residual = 0.00280743, Final residual = 1.62818e-07, No Iterations 3
GAMG:  Solving for p, Initial residual = 9.33846e-05, Final residual = 7.32263e-07, No Iterations 4
GAMG:  Solving for p, Initial residual = 7.3294e-07, Final residual = 6.24476e-08, No Iterations 2
time step continuity errors : sum local = 1.80938e-10, global = -5.07965e-11, cumulative = 6.30662e-09
ExecutionTime = 4.5 s  ClockTime = 5 s

Courant Number mean: 0.453948 max: 0.701158
deltaT = 0.0224461
Time = 2.187351

PIMPLE: iteration 1
smoothSolver:  Solving for Ux, Initial residual = 0.000959524, Final residual = 6.65695e-08, No Iterations 3
smoothSolver:  Solving for Uy, Initial residual = 0.00135799, Final residual = 5.81706e-08, No Iterations 3
smoothSolver:  Solving for Uz, Initial residual = 0.00276353, Final residual = 1.61646e-07, No Iterations 3
GAMG:  Solving for p, Initial residual = 9.0155e-05, Final residual = 7.58196e-07, No Iterations 4
GAMG:  Solving for p, Initial residual = 7.58864e-07, Final residual = 6.47742e-08, No Iterations 2
time step continuity errors : sum local = 1.86949e-10, global = -5.16005e-11, cumulative = 6.25502e-09
ExecutionTime = 4.55 s  ClockTime = 5 s

Courant Number mean: 0.453213 max: 0.701137
deltaT = 0.0224097
Time = 2.209761

PIMPLE: iteration 1
smoothSolver:  Solving for Ux, Initial residual = 0.00093376, Final residual = 6.47426e-08, No Iterations 3
smoothSolver:  Solving for Uy, Initial residual = 0.00132604, Final residual = 5.67713e-08, No Iterations 3
smoothSolver:  Solving for Uz, Initial residual = 0.00272469, Final residual = 1.60859e-07, No Iterations 3
GAMG:  Solving for p, Initial residual = 8.47628e-05, Final residual = 7.65397e-07, No Iterations 4
GAMG:  Solving for p, Initial residual = 7.66038e-07, Final residual = 6.81243e-08, No Iterations 2
time step continuity errors : sum local = 1.95873e-10, global = -4.96767e-11, cumulative = 6.20534e-09
ExecutionTime = 4.59 s  ClockTime = 5 s

Courant Number mean: 0.452492 max: 0.701124
deltaT = 0.0223738
Time = 2.232135

PIMPLE: iteration 1
smoothSolver:  Solving for Ux, Initial residual = 0.00090881, Final residual = 6.29669e-08, No Iterations 3
smoothSolver:  Solving for Uy, Initial residual = 0.00129596, Final residual = 5.54768e-08, No Iterations 3
smoothSolver:  Solving for Uz, Initial residual = 0.00268346, Final residual = 1.60099e-07, No Iterations 3
GAMG:  Solving for p, Initial residual = 8.60338e-05, Final residual = 7.69545e-07, No Iterations 4
GAMG:  Solving for p, Initial residual = 7.7016e-07, Final residual = 7.44679e-08, No Iterations 2
time step continuity errors : sum local = 2.13315e-10, global = -4.56123e-11, cumulative = 6.15973e-09
ExecutionTime = 4.64 s  ClockTime = 5 s

Courant Number mean: 0.451781 max: 0.701099
deltaT = 0.0223387
Time = 2.254474

PIMPLE: iteration 1
smoothSolver:  Solving for Ux, Initial residual = 0.000884638, Final residual = 6.12498e-08, No Iterations 3
smoothSolver:  Solving for Uy, Initial residual = 0.00126642, Final residual = 5.43141e-08, No Iterations 3
smoothSolver:  Solving for Uz, Initial residual = 0.00264128, Final residual = 1.59282e-07, No Iterations 3
GAMG:  Solving for p, Initial residual = 8.53547e-05, Final residual = 7.71139e-07, No Iterations 4
GAMG:  Solving for p, Initial residual = 7.71723e-07, Final residual = 9.41535e-08, No Iterations 2
time step continuity errors : sum local = 2.6873e-10, global = -2.90163e-11, cumulative = 6.13071e-09
ExecutionTime = 4.69 s  ClockTime = 5 s

Courant Number mean: 0.451086 max: 0.701083
deltaT = 0.0223042
Time = 2.276778

PIMPLE: iteration 1
smoothSolver:  Solving for Ux, Initial residual = 0.000861215, Final residual = 5.95818e-08, No Iterations 3
smoothSolver:  Solving for Uy, Initial residual = 0.00123705, Final residual = 5.3127e-08, No Iterations 3
smoothSolver:  Solving for Uz, Initial residual = 0.00260648, Final residual = 1.5888e-07, No Iterations 3
GAMG:  Solving for p, Initial residual = 7.83922e-05, Final residual = 7.54761e-07, No Iterations 4
GAMG:  Solving for p, Initial residual = 7.55305e-07, Final residual = 9.93797e-08, No Iterations 2
time step continuity errors : sum local = 2.82642e-10, global = -1.63248e-11, cumulative = 6.11439e-09
ExecutionTime = 4.73 s  ClockTime = 5 s

Courant Number mean: 0.450403 max: 0.701067
deltaT = 0.0222703
Time = 2.299048

PIMPLE: iteration 1
smoothSolver:  Solving for Ux, Initial residual = 0.00083852, Final residual = 5.79606e-08, No Iterations 3
smoothSolver:  Solving for Uy, Initial residual = 0.00120888, Final residual = 5.20762e-08, No Iterations 3
smoothSolver:  Solving for Uz, Initial residual = 0.00256999, Final residual = 1.58211e-07, No Iterations 3
GAMG:  Solving for p, Initial residual = 7.6885e-05, Final residual = 7.17499e-07, No Iterations 4
GAMG:  Solving for p, Initial residual = 7.17989e-07, Final residual = 9.95675e-08, No Iterations 2
time step continuity errors : sum local = 2.82195e-10, global = 8.63373e-12, cumulative = 6.12302e-09
ExecutionTime = 4.78 s  ClockTime = 5 s

Courant Number mean: 0.449731 max: 0.701043
deltaT = 0.0222372
Time = 2.321285

PIMPLE: iteration 1
smoothSolver:  Solving for Ux, Initial residual = 0.000816686, Final residual = 5.63938e-08, No Iterations 3
smoothSolver:  Solving for Uy, Initial residual = 0.001182, Final residual = 5.10971e-08, No Iterations 3
smoothSolver:  Solving for Uz, Initial residual = 0.00253212, Final residual = 1.57382e-07, No Iterations 3
GAMG:  Solving for p, Initial residual = 7.63542e-05, Final residual = 6.5888e-07, No Iterations 4
GAMG:  Solving for p, Initial residual = 6.59307e-07, Final residual = 8.34141e-08, No Iterations 2
time step continuity errors : sum local = 2.35617e-10, global = 3.93927e-11, cumulative = 6.16241e-09
ExecutionTime = 4.82 s  ClockTime = 5 s

Courant Number mean: 0.449075 max: 0.701032
deltaT = 0.0222044
Time = 2.34349

PIMPLE: iteration 1
smoothSolver:  Solving for Ux, Initial residual = 0.000795713, Final residual = 5.48709e-08, No Iterations 3
smoothSolver:  Solving for Uy, Initial residual = 0.00115564, Final residual = 5.01714e-08, No Iterations 3
smoothSolver:  Solving for Uz, Initial residual = 0.00249833, Final residual = 1.5645e-07, No Iterations 3
GAMG:  Solving for p, Initial residual = 7.5101e-05, Final residual = 6.04726e-07, No Iterations 4
GAMG:  Solving for p, Initial residual = 6.05097e-07, Final residual = 6.58001e-08, No Iterations 2
time step continuity errors : sum local = 1.85249e-10, global = 5.1499e-11, cumulative = 6.21391e-09
ExecutionTime = 4.86 s  ClockTime = 5 s

Courant Number mean: 0.448426 max: 0.701013
deltaT = 0.0221723
Time = 2.365662

PIMPLE: iteration 1
smoothSolver:  Solving for Ux, Initial residual = 0.000775389, Final residual = 5.33961e-08, No Iterations 3
smoothSolver:  Solving for Uy, Initial residual = 0.00112975, Final residual = 4.93507e-08, No Iterations 3
smoothSolver:  Solving for Uz, Initial residual = 0.0024632, Final residual = 1.55094e-07, No Iterations 3
GAMG:  Solving for p, Initial residual = 7.19982e-05, Final residual = 5.35546e-07, No Iterations 4
GAMG:  Solving for p, Initial residual = 5.35857e-07, Final residual = 4.50024e-08, No Iterations 2
time step continuity errors : sum local = 1.26287e-10, global = 5.58658e-11, cumulative = 6.26978e-09
ExecutionTime = 4.91 s  ClockTime = 5 s

Courant Number mean: 0.447791 max: 0.701009
deltaT = 0.0221404
Time = 2.387802

PIMPLE: iteration 1
smoothSolver:  Solving for Ux, Initial residual = 0.000755662, Final residual = 9.77609e-07, No Iterations 2
smoothSolver:  Solving for Uy, Initial residual = 0.00110498, Final residual = 4.85667e-08, No Iterations 3
smoothSolver:  Solving for Uz, Initial residual = 0.00243017, Final residual = 1.53437e-07, No Iterations 3
GAMG:  Solving for p, Initial residual = 7.46037e-05, Final residual = 4.75978e-07, No Iterations 4
GAMG:  Solving for p, Initial residual = 4.76231e-07, Final residual = 3.50372e-08, No Iterations 2
time step continuity errors : sum local = 9.80118e-11, global = 5.07288e-11, cumulative = 6.32051e-09
ExecutionTime = 4.96 s  ClockTime = 5 s

Courant Number mean: 0.447159 max: 0.701017
deltaT = 0.0221083
Time = 2.409911

PIMPLE: iteration 1
smoothSolver:  Solving for Ux, Initial residual = 0.000736464, Final residual = 9.5136e-07, No Iterations 2
smoothSolver:  Solving for Uy, Initial residual = 0.00108141, Final residual = 4.73551e-08, No Iterations 3
smoothSolver:  Solving for Uz, Initial residual = 0.00239742, Final residual = 1.50952e-07, No Iterations 3
GAMG:  Solving for p, Initial residual = 7.15027e-05, Final residual = 4.39801e-07, No Iterations 4
GAMG:  Solving for p, Initial residual = 4.4003e-07, Final residual = 3.22103e-08, No Iterations 2
time step continuity errors : sum local = 8.98179e-11, global = 4.9547e-11, cumulative = 6.37005e-09
ExecutionTime = 5 s  ClockTime = 5 s

Courant Number mean: 0.446522 max: 0.701002
deltaT = 0.0220767
Time = 2.431987

PIMPLE: iteration 1
smoothSolver:  Solving for Ux, Initial residual = 0.00071788, Final residual = 9.25896e-07, No Iterations 2
smoothSolver:  Solving for Uy, Initial residual = 0.00105866, Final residual = 4.69485e-08, No Iterations 3
smoothSolver:  Solving for Uz, Initial residual = 0.00236157, Final residual = 1.48143e-07, No Iterations 3
GAMG:  Solving for p, Initial residual = 7.23092e-05, Final residual = 3.78368e-07, No Iterations 4
GAMG:  Solving for p, Initial residual = 3.78554e-07, Final residual = 2.70359e-08, No Iterations 2
time step continuity errors : sum local = 7.51547e-11, global = 4.21491e-11, cumulative = 6.4122e-09
ExecutionTime = 5.05 s  ClockTime = 5 s

Courant Number mean: 0.445895 max: 0.700987
deltaT = 0.0220456
Time = 2.454033

PIMPLE: iteration 1
smoothSolver:  Solving for Ux, Initial residual = 0.000699881, Final residual = 9.01103e-07, No Iterations 2
smoothSolver:  Solving for Uy, Initial residual = 0.00103561, Final residual = 4.68742e-08, No Iterations 3
smoothSolver:  Solving for Uz, Initial residual = 0.00233445, Final residual = 1.45199e-07, No Iterations 3
GAMG:  Solving for p, Initial residual = 6.61629e-05, Final residual = 3.5182e-07, No Iterations 4
GAMG:  Solving for p, Initial residual = 3.51983e-07, Final residual = 2.55589e-08, No Iterations 2
time step continuity errors : sum local = 7.08329e-11, global = 3.91726e-11, cumulative = 6.45138e-09
ExecutionTime = 5.1 s  ClockTime = 5 s

Courant Number mean: 0.445279 max: 0.700972
deltaT = 0.022015
Time = 2.476048

PIMPLE: iteration 1
smoothSolver:  Solving for Ux, Initial residual = 0.000682367, Final residual = 8.76952e-07, No Iterations 2
smoothSolver:  Solving for Uy, Initial residual = 0.00101421, Final residual = 4.69461e-08, No Iterations 3
smoothSolver:  Solving for Uz, Initial residual = 0.00230179, Final residual = 1.41552e-07, No Iterations 3
GAMG:  Solving for p, Initial residual = 6.47743e-05, Final residual = 3.232e-07, No Iterations 4
GAMG:  Solving for p, Initial residual = 3.23341e-07, Final residual = 2.36742e-08, No Iterations 2
time step continuity errors : sum local = 6.54143e-11, global = 3.55265e-11, cumulative = 6.4869e-09
ExecutionTime = 5.14 s  ClockTime = 5 s

Courant Number mean: 0.444673 max: 0.700958
deltaT = 0.0219849
Time = 2.498033

PIMPLE: iteration 1
smoothSolver:  Solving for Ux, Initial residual = 0.000665361, Final residual = 8.53431e-07, No Iterations 2
smoothSolver:  Solving for Uy, Initial residual = 0.000993208, Final residual = 4.68752e-08, No Iterations 3
smoothSolver:  Solving for Uz, Initial residual = 0.0022718, Final residual = 1.37427e-07, No Iterations 3
GAMG:  Solving for p, Initial residual = 6.45962e-05, Final residual = 3.02961e-07, No Iterations 4
GAMG:  Solving for p, Initial residual = 3.03085e-07, Final residual = 2.22788e-08, No Iterations 2
time step continuity errors : sum local = 6.13794e-11, global = 3.28267e-11, cumulative = 6.51973e-09
ExecutionTime = 5.18 s  ClockTime = 5 s

Courant Number mean: 0.444077 max: 0.700944
deltaT = 0.0219553
Time = 2.519988

PIMPLE: iteration 1
smoothSolver:  Solving for Ux, Initial residual = 0.000648829, Final residual = 8.30546e-07, No Iterations 2
[...]
smoothSolver:  Solving for Uz, Initial residual = 5.64375e-05, Final residual = 9.35498e-08, No Iterations 2
GAMG:  Solving for p, Initial residual = 1.89096e-05, Final residual = 3.73633e-08, No Iterations 1
GAMG:  Solving for p, Initial residual = 3.73632e-08, Final residual = 3.73632e-08, No Iterations 0
time step continuity errors : sum local = 9.07799e-11, global = 1.18803e-12, cumulative = 3.0572e-09
ExecutionTime = 69.75 s  ClockTime = 72 s

Courant Number mean: 0.411925 max: 0.700001
deltaT = 0.0203637
Time = 39.524967403267901

PIMPLE: iteration 1
smoothSolver:  Solving for Ux, Initial residual = 9.28054e-07, Final residual = 9.28054e-07, No Iterations 0
smoothSolver:  Solving for Uy, Initial residual = 4.57663e-05, Final residual = 6.4189e-08, No Iterations 2
smoothSolver:  Solving for Uz, Initial residual = 5.39997e-05, Final residual = 9.46851e-08, No Iterations 2
GAMG:  Solving for p, Initial residual = 5.00505e-05, Final residual = 1.04024e-07, No Iterations 1
GAMG:  Solving for p, Initial residual = 1.04021e-07, Final residual = 8.1621e-09, No Iterations 1
time step continuity errors : sum local = 1.98321e-11, global = -5.25807e-12, cumulative = 3.05195e-09
ExecutionTime = 69.79 s  ClockTime = 72 s

Courant Number mean: 0.411924 max: 0.700002
deltaT = 0.0203636
Time = 39.545331019390375

PIMPLE: iteration 1
smoothSolver:  Solving for Ux, Initial residual = 1.00119e-06, Final residual = 4.31046e-08, No Iterations 1
smoothSolver:  Solving for Uy, Initial residual = 4.64239e-05, Final residual = 6.52904e-08, No Iterations 2
smoothSolver:  Solving for Uz, Initial residual = 5.18876e-05, Final residual = 8.75907e-08, No Iterations 2
GAMG:  Solving for p, Initial residual = 5.25099e-05, Final residual = 1.10551e-07, No Iterations 1
GAMG:  Solving for p, Initial residual = 1.10554e-07, Final residual = 7.94164e-09, No Iterations 1
time step continuity errors : sum local = 1.92952e-11, global = 4.90418e-12, cumulative = 3.05685e-09
ExecutionTime = 69.82 s  ClockTime = 72 s

Courant Number mean: 0.411923 max: 0.700003
deltaT = 0.0203635
Time = 39.565694546320877

PIMPLE: iteration 1
smoothSolver:  Solving for Ux, Initial residual = 9.53014e-07, Final residual = 9.53014e-07, No Iterations 0
smoothSolver:  Solving for Uy, Initial residual = 4.36847e-05, Final residual = 6.27797e-08, No Iterations 2
smoothSolver:  Solving for Uz, Initial residual = 5.30259e-05, Final residual = 8.88554e-08, No Iterations 2
GAMG:  Solving for p, Initial residual = 5.68356e-05, Final residual = 1.12198e-07, No Iterations 1
GAMG:  Solving for p, Initial residual = 1.12195e-07, Final residual = 5.725e-09, No Iterations 1
time step continuity errors : sum local = 1.39102e-11, global = -1.50913e-13, cumulative = 3.0567e-09
ExecutionTime = 69.85 s  ClockTime = 72 s

Courant Number mean: 0.411921 max: 0.700003
deltaT = 0.0203635
Time = 39.586057998308355

PIMPLE: iteration 1
smoothSolver:  Solving for Ux, Initial residual = 9.55675e-07, Final residual = 9.55675e-07, No Iterations 0
smoothSolver:  Solving for Uy, Initial residual = 4.68813e-05, Final residual = 6.35526e-08, No Iterations 2
smoothSolver:  Solving for Uz, Initial residual = 5.08095e-05, Final residual = 8.65794e-08, No Iterations 2
GAMG:  Solving for p, Initial residual = 3.3292e-05, Final residual = 6.5605e-08, No Iterations 1
GAMG:  Solving for p, Initial residual = 6.5605e-08, Final residual = 6.5605e-08, No Iterations 0
time step continuity errors : sum local = 1.59402e-10, global = -3.75531e-11, cumulative = 3.01915e-09
ExecutionTime = 69.88 s  ClockTime = 72 s

Courant Number mean: 0.41192 max: 0.700002
deltaT = 0.0203634
Time = 39.606421398078297

PIMPLE: iteration 1
smoothSolver:  Solving for Ux, Initial residual = 1.0785e-06, Final residual = 4.64888e-08, No Iterations 1
smoothSolver:  Solving for Uy, Initial residual = 4.68533e-05, Final residual = 6.51715e-08, No Iterations 2
smoothSolver:  Solving for Uz, Initial residual = 5.26931e-05, Final residual = 8.69653e-08, No Iterations 2
GAMG:  Solving for p, Initial residual = 5.14567e-05, Final residual = 1.08117e-07, No Iterations 1
GAMG:  Solving for p, Initial residual = 1.0812e-07, Final residual = 8.67527e-09, No Iterations 1
time step continuity errors : sum local = 2.10773e-11, global = 8.77266e-13, cumulative = 3.02002e-09
ExecutionTime = 69.91 s  ClockTime = 72 s

Courant Number mean: 0.411919 max: 0.7
deltaT = 0.0203634
Time = 39.62678479495117

PIMPLE: iteration 1
smoothSolver:  Solving for Ux, Initial residual = 1.01945e-06, Final residual = 4.21004e-08, No Iterations 1
smoothSolver:  Solving for Uy, Initial residual = 4.54665e-05, Final residual = 6.46775e-08, No Iterations 2
smoothSolver:  Solving for Uz, Initial residual = 5.4512e-05, Final residual = 9.25475e-08, No Iterations 2
GAMG:  Solving for p, Initial residual = 1.78904e-05, Final residual = 3.99941e-08, No Iterations 1
GAMG:  Solving for p, Initial residual = 3.99941e-08, Final residual = 3.99941e-08, No Iterations 0
time step continuity errors : sum local = 9.71689e-11, global = 8.90973e-12, cumulative = 3.02893e-09
ExecutionTime = 69.94 s  ClockTime = 72 s

Courant Number mean: 0.411919 max: 0.699998
deltaT = 0.0203634
Time = 39.647148240119847

PIMPLE: iteration 1
smoothSolver:  Solving for Ux, Initial residual = 9.0448e-07, Final residual = 9.0448e-07, No Iterations 0
smoothSolver:  Solving for Uy, Initial residual = 4.39499e-05, Final residual = 6.2058e-08, No Iterations 2
smoothSolver:  Solving for Uz, Initial residual = 5.29451e-05, Final residual = 9.21815e-08, No Iterations 2
GAMG:  Solving for p, Initial residual = 4.88395e-05, Final residual = 9.87857e-08, No Iterations 1
GAMG:  Solving for p, Initial residual = 9.87831e-08, Final residual = 9.87831e-08, No Iterations 0
time step continuity errors : sum local = 2.40015e-10, global = -3.60722e-11, cumulative = 2.99286e-09
ExecutionTime = 69.97 s  ClockTime = 72 s

Courant Number mean: 0.41192 max: 0.699998
deltaT = 0.0203635
Time = 39.667511752455489

PIMPLE: iteration 1
smoothSolver:  Solving for Ux, Initial residual = 9.79697e-07, Final residual = 9.79697e-07, No Iterations 0
smoothSolver:  Solving for Uy, Initial residual = 4.48314e-05, Final residual = 6.29068e-08, No Iterations 2
smoothSolver:  Solving for Uz, Initial residual = 5.12576e-05, Final residual = 8.36043e-08, No Iterations 2
GAMG:  Solving for p, Initial residual = 3.56686e-05, Final residual = 9.68452e-08, No Iterations 1
GAMG:  Solving for p, Initial residual = 9.68451e-08, Final residual = 9.68451e-08, No Iterations 0
time step continuity errors : sum local = 2.35308e-10, global = -4.82989e-11, cumulative = 2.94456e-09
ExecutionTime = 70 s  ClockTime = 72 s

Courant Number mean: 0.411921 max: 0.699997
deltaT = 0.0203636
Time = 39.687875350300459

PIMPLE: iteration 1
smoothSolver:  Solving for Ux, Initial residual = 1.04157e-06, Final residual = 4.31242e-08, No Iterations 1
smoothSolver:  Solving for Uy, Initial residual = 4.70146e-05, Final residual = 6.52073e-08, No Iterations 2
smoothSolver:  Solving for Uz, Initial residual = 5.20549e-05, Final residual = 8.61969e-08, No Iterations 2
GAMG:  Solving for p, Initial residual = 5.23736e-05, Final residual = 1.11825e-07, No Iterations 1
GAMG:  Solving for p, Initial residual = 1.11829e-07, Final residual = 5.17273e-09, No Iterations 1
time step continuity errors : sum local = 1.25678e-11, global = 1.82038e-12, cumulative = 2.94638e-09
ExecutionTime = 70.03 s  ClockTime = 72 s

Courant Number mean: 0.411923 max: 0.699997
deltaT = 0.0203637
Time = 39.708239026923472

PIMPLE: iteration 1
smoothSolver:  Solving for Ux, Initial residual = 9.84862e-07, Final residual = 9.84862e-07, No Iterations 0
smoothSolver:  Solving for Uy, Initial residual = 4.34953e-05, Final residual = 6.17513e-08, No Iterations 2
smoothSolver:  Solving for Uz, Initial residual = 5.33463e-05, Final residual = 9.10888e-08, No Iterations 2
GAMG:  Solving for p, Initial residual = 6.06124e-05, Final residual = 1.38644e-07, No Iterations 1
GAMG:  Solving for p, Initial residual = 1.38639e-07, Final residual = 1.51658e-08, No Iterations 1
time step continuity errors : sum local = 3.68498e-11, global = -9.65066e-12, cumulative = 2.93673e-09
ExecutionTime = 70.06 s  ClockTime = 72 s

Courant Number mean: 0.411924 max: 0.699998
deltaT = 0.0203637
Time = 39.728602753043887

PIMPLE: iteration 1
smoothSolver:  Solving for Ux, Initial residual = 1.05393e-06, Final residual = 4.48418e-08, No Iterations 1
smoothSolver:  Solving for Uy, Initial residual = 4.69693e-05, Final residual = 6.49683e-08, No Iterations 2
smoothSolver:  Solving for Uz, Initial residual = 5.2904e-05, Final residual = 8.5508e-08, No Iterations 2
GAMG:  Solving for p, Initial residual = 5.56729e-05, Final residual = 1.02127e-07, No Iterations 1
GAMG:  Solving for p, Initial residual = 1.0213e-07, Final residual = 4.59504e-09, No Iterations 1
time step continuity errors : sum local = 1.11643e-11, global = -3.45437e-12, cumulative = 2.93328e-09
ExecutionTime = 70.09 s  ClockTime = 72 s

Courant Number mean: 0.411925 max: 0.700001
deltaT = 0.0203637
Time = 39.748966452469645

PIMPLE: iteration 1
smoothSolver:  Solving for Ux, Initial residual = 9.81886e-07, Final residual = 9.81886e-07, No Iterations 0
smoothSolver:  Solving for Uy, Initial residual = 4.3705e-05, Final residual = 6.16261e-08, No Iterations 2
smoothSolver:  Solving for Uz, Initial residual = 5.27501e-05, Final residual = 9.17208e-08, No Iterations 2
GAMG:  Solving for p, Initial residual = 5.83644e-05, Final residual = 1.18213e-07, No Iterations 1
GAMG:  Solving for p, Initial residual = 1.18209e-07, Final residual = 9.04191e-09, No Iterations 1
time step continuity errors : sum local = 2.19699e-11, global = -4.04062e-12, cumulative = 2.92924e-09
ExecutionTime = 70.12 s  ClockTime = 72 s

Courant Number mean: 0.411925 max: 0.700002
deltaT = 0.0203636
Time = 39.769330096373778

PIMPLE: iteration 1
smoothSolver:  Solving for Ux, Initial residual = 1.0165e-06, Final residual = 4.44862e-08, No Iterations 1
smoothSolver:  Solving for Uy, Initial residual = 4.67066e-05, Final residual = 6.52814e-08, No Iterations 2
smoothSolver:  Solving for Uz, Initial residual = 5.16576e-05, Final residual = 8.90417e-08, No Iterations 2
GAMG:  Solving for p, Initial residual = 5.23834e-05, Final residual = 1.049e-07, No Iterations 1
GAMG:  Solving for p, Initial residual = 1.04903e-07, Final residual = 5.27833e-09, No Iterations 1
time step continuity errors : sum local = 1.28244e-11, global = -1.45126e-12, cumulative = 2.92779e-09
ExecutionTime = 70.16 s  ClockTime = 72 s

Courant Number mean: 0.411924 max: 0.700003
deltaT = 0.0203636
Time = 39.789693648428269

PIMPLE: iteration 1
smoothSolver:  Solving for Ux, Initial residual = 9.87346e-07, Final residual = 9.87346e-07, No Iterations 0
smoothSolver:  Solving for Uy, Initial residual = 4.3752e-05, Final residual = 6.31657e-08, No Iterations 2
smoothSolver:  Solving for Uz, Initial residual = 5.3746e-05, Final residual = 8.87815e-08, No Iterations 2
GAMG:  Solving for p, Initial residual = 5.75196e-05, Final residual = 1.08755e-07, No Iterations 1
GAMG:  Solving for p, Initial residual = 1.08751e-07, Final residual = 5.57103e-09, No Iterations 1
time step continuity errors : sum local = 1.35363e-11, global = -3.41403e-13, cumulative = 2.92744e-09
ExecutionTime = 70.19 s  ClockTime = 72 s

Courant Number mean: 0.411922 max: 0.700003
deltaT = 0.0203635
Time = 39.810057116799662

PIMPLE: iteration 1
smoothSolver:  Solving for Ux, Initial residual = 9.86519e-07, Final residual = 9.86519e-07, No Iterations 0
smoothSolver:  Solving for Uy, Initial residual = 4.71752e-05, Final residual = 6.45794e-08, No Iterations 2
smoothSolver:  Solving for Uz, Initial residual = 5.11191e-05, Final residual = 8.67144e-08, No Iterations 2
GAMG:  Solving for p, Initial residual = 3.48144e-05, Final residual = 6.45515e-08, No Iterations 1
GAMG:  Solving for p, Initial residual = 6.45517e-08, Final residual = 6.45517e-08, No Iterations 0
time step continuity errors : sum local = 1.56844e-10, global = -3.2148e-11, cumulative = 2.8953e-09
ExecutionTime = 70.21 s  ClockTime = 72 s

Courant Number mean: 0.41192 max: 0.700002
deltaT = 0.0203634
Time = 39.830420518232081

PIMPLE: iteration 1
smoothSolver:  Solving for Ux, Initial residual = 1.09684e-06, Final residual = 4.80622e-08, No Iterations 1
smoothSolver:  Solving for Uy, Initial residual = 4.74519e-05, Final residual = 6.63321e-08, No Iterations 2
smoothSolver:  Solving for Uz, Initial residual = 5.25789e-05, Final residual = 8.89939e-08, No Iterations 2
GAMG:  Solving for p, Initial residual = 5.27471e-05, Final residual = 1.07376e-07, No Iterations 1
GAMG:  Solving for p, Initial residual = 1.07379e-07, Final residual = 8.97143e-09, No Iterations 1
time step continuity errors : sum local = 2.17969e-11, global = 1.82014e-12, cumulative = 2.89712e-09
ExecutionTime = 70.25 s  ClockTime = 72 s

Courant Number mean: 0.411919 max: 0.7
deltaT = 0.0203634
Time = 39.850783907296531

PIMPLE: iteration 1
smoothSolver:  Solving for Ux, Initial residual = 1.05073e-06, Final residual = 4.41069e-08, No Iterations 1
smoothSolver:  Solving for Uy, Initial residual = 4.65168e-05, Final residual = 6.61171e-08, No Iterations 2
smoothSolver:  Solving for Uz, Initial residual = 5.58379e-05, Final residual = 9.25948e-08, No Iterations 2
GAMG:  Solving for p, Initial residual = 1.9034e-05, Final residual = 3.78883e-08, No Iterations 1
GAMG:  Solving for p, Initial residual = 3.78883e-08, Final residual = 3.78883e-08, No Iterations 0
time step continuity errors : sum local = 9.20529e-11, global = 6.13822e-13, cumulative = 2.89773e-09
ExecutionTime = 70.28 s  ClockTime = 72 s

Courant Number mean: 0.411919 max: 0.699999
deltaT = 0.0203634
Time = 39.87114732915753

PIMPLE: iteration 1
smoothSolver:  Solving for Ux, Initial residual = 9.16269e-07, Final residual = 9.16269e-07, No Iterations 0
smoothSolver:  Solving for Uy, Initial residual = 4.51379e-05, Final residual = 6.3139e-08, No Iterations 2
smoothSolver:  Solving for Uz, Initial residual = 5.34905e-05, Final residual = 9.38522e-08, No Iterations 2
GAMG:  Solving for p, Initial residual = 4.9793e-05, Final residual = 1.03616e-07, No Iterations 1
GAMG:  Solving for p, Initial residual = 1.03614e-07, Final residual = 7.82191e-09, No Iterations 1
time step continuity errors : sum local = 1.90051e-11, global = 5.19681e-12, cumulative = 2.90293e-09
ExecutionTime = 70.31 s  ClockTime = 72 s

Courant Number mean: 0.411919 max: 0.699998
deltaT = 0.0203635
Time = 39.89151080872518

PIMPLE: iteration 1
smoothSolver:  Solving for Ux, Initial residual = 9.9418e-07, Final residual = 9.9418e-07, No Iterations 0
smoothSolver:  Solving for Uy, Initial residual = 4.57616e-05, Final residual = 6.42773e-08, No Iterations 2
smoothSolver:  Solving for Uz, Initial residual = 5.15176e-05, Final residual = 8.64658e-08, No Iterations 2
GAMG:  Solving for p, Initial residual = 3.68655e-05, Final residual = 6.29728e-08, No Iterations 1
GAMG:  Solving for p, Initial residual = 6.29727e-08, Final residual = 6.29727e-08, No Iterations 0
time step continuity errors : sum local = 1.53008e-10, global = 1.46095e-11, cumulative = 2.91754e-09
ExecutionTime = 70.34 s  ClockTime = 72 s

Courant Number mean: 0.41192 max: 0.699997
deltaT = 0.0203636
Time = 39.911874371598927

PIMPLE: iteration 1
smoothSolver:  Solving for Ux, Initial residual = 1.06734e-06, Final residual = 4.4113e-08, No Iterations 1
smoothSolver:  Solving for Uy, Initial residual = 4.84057e-05, Final residual = 6.7301e-08, No Iterations 2
smoothSolver:  Solving for Uz, Initial residual = 5.35942e-05, Final residual = 8.72696e-08, No Iterations 2
GAMG:  Solving for p, Initial residual = 5.2979e-05, Final residual = 1.07901e-07, No Iterations 1
GAMG:  Solving for p, Initial residual = 1.07904e-07, Final residual = 8.78468e-09, No Iterations 1
time step continuity errors : sum local = 2.13434e-11, global = -5.27785e-12, cumulative = 2.91226e-09
ExecutionTime = 70.37 s  ClockTime = 72 s

Courant Number mean: 0.411922 max: 0.699997
deltaT = 0.0203637
Time = 39.932238024797002

PIMPLE: iteration 1
smoothSolver:  Solving for Ux, Initial residual = 9.77225e-07, Final residual = 9.77225e-07, No Iterations 0
smoothSolver:  Solving for Uy, Initial residual = 4.54383e-05, Final residual = 6.39538e-08, No Iterations 2
smoothSolver:  Solving for Uz, Initial residual = 5.39934e-05, Final residual = 9.39775e-08, No Iterations 2
GAMG:  Solving for p, Initial residual = 6.19843e-05, Final residual = 1.13816e-07, No Iterations 1
GAMG:  Solving for p, Initial residual = 1.13812e-07, Final residual = 5.22641e-09, No Iterations 1
time step continuity errors : sum local = 1.26991e-11, global = -4.65821e-13, cumulative = 2.91179e-09
ExecutionTime = 70.4 s  ClockTime = 72 s

Courant Number mean: 0.411924 max: 0.699998
deltaT = 0.0203637
Time = 39.952601742349358

PIMPLE: iteration 1
smoothSolver:  Solving for Ux, Initial residual = 1.06689e-06, Final residual = 4.59153e-08, No Iterations 1
smoothSolver:  Solving for Uy, Initial residual = 4.79537e-05, Final residual = 6.6733e-08, No Iterations 2
smoothSolver:  Solving for Uz, Initial residual = 5.32709e-05, Final residual = 8.78881e-08, No Iterations 2
GAMG:  Solving for p, Initial residual = 5.53115e-05, Final residual = 9.91523e-08, No Iterations 1
GAMG:  Solving for p, Initial residual = 9.91555e-08, Final residual = 9.91555e-08, No Iterations 0
time step continuity errors : sum local = 2.40913e-10, global = 5.14224e-12, cumulative = 2.91694e-09
ExecutionTime = 70.43 s  ClockTime = 72 s

Courant Number mean: 0.411925 max: 0.7
deltaT = 0.0203637
Time = 39.972965460072196

PIMPLE: iteration 1
smoothSolver:  Solving for Ux, Initial residual = 1.00775e-06, Final residual = 4.15632e-08, No Iterations 1
smoothSolver:  Solving for Uy, Initial residual = 4.53558e-05, Final residual = 6.41141e-08, No Iterations 2
smoothSolver:  Solving for Uz, Initial residual = 5.39826e-05, Final residual = 9.20601e-08, No Iterations 2
GAMG:  Solving for p, Initial residual = 1.96294e-05, Final residual = 5.08451e-08, No Iterations 1
GAMG:  Solving for p, Initial residual = 5.08452e-08, Final residual = 5.08452e-08, No Iterations 0
time step continuity errors : sum local = 1.23536e-10, global = 1.90966e-11, cumulative = 2.93603e-09
ExecutionTime = 70.46 s  ClockTime = 72 s

Courant Number mean: 0.411925 max: 0.700002
deltaT = 0.0203637
Time = 39.993329115595046

PIMPLE: iteration 1
smoothSolver:  Solving for Ux, Initial residual = 8.87699e-07, Final residual = 8.87699e-07, No Iterations 0
smoothSolver:  Solving for Uy, Initial residual = 4.39734e-05, Final residual = 6.18998e-08, No Iterations 2
smoothSolver:  Solving for Uz, Initial residual = 5.28686e-05, Final residual = 9.19097e-08, No Iterations 2
GAMG:  Solving for p, Initial residual = 4.94923e-05, Final residual = 1.17338e-07, No Iterations 1
GAMG:  Solving for p, Initial residual = 1.17335e-07, Final residual = 1.18283e-08, No Iterations 1
time step continuity errors : sum local = 2.87401e-11, global = -1.23306e-11, cumulative = 2.9237e-09
ExecutionTime = 70.57 s  ClockTime = 73 s

Courant Number mean: 0.411924 max: 0.700003
deltaT = 0.0203636
Time = 40.013692694523591

PIMPLE: iteration 1
smoothSolver:  Solving for Ux, Initial residual = 9.6177e-07, Final residual = 9.6177e-07, No Iterations 0
smoothSolver:  Solving for Uy, Initial residual = 4.4974e-05, Final residual = 6.2752e-08, No Iterations 2
smoothSolver:  Solving for Uz, Initial residual = 5.12422e-05, Final residual = 8.2994e-08, No Iterations 2
GAMG:  Solving for p, Initial residual = 3.54986e-05, Final residual = 7.14139e-08, No Iterations 1
GAMG:  Solving for p, Initial residual = 7.14139e-08, Final residual = 7.14139e-08, No Iterations 0
time step continuity errors : sum local = 1.73518e-10, global = -4.52477e-11, cumulative = 2.87845e-09
ExecutionTime = 70.6 s  ClockTime = 73 s

End

